@<TRIPOS>MOLECULE
tmp/2g54B00.pdb
 227 222 0 0 0
SMALL
GASTEIGER

@<TRIPOS>ATOM
      1  N         45.8460  100.8010   40.8760 N.3    53  SER53      -0.1217
      2  CA        46.9080  101.4070   41.6760 C.3    53  SER53       0.1889
      3  C         46.7970  102.9190   41.8010 C.2    53  SER53       0.2288
      4  O         47.3100  103.5080   42.7460 O.2    53  SER53      -0.2866
      5  CB        48.2770  101.0190   41.1020 C.3    53  SER53       0.2089
      6  OG        48.3550  101.3360   39.7290 O.3    53  SER53      -0.2183
      7  N         47.6280   96.2740   44.0490 N.3    65  HIS65      -0.1241
      8  CA        48.2910   95.1120   43.4680 C.3    65  HIS65       0.1621
      9  C         48.3190   93.9710   44.4830 C.2    65  HIS65       0.2264
     10  O         48.0720   92.8090   44.1510 O.2    65  HIS65      -0.2867
     11  CB        49.7220   95.4780   43.0840 C.3    65  HIS65       0.0745
     12  CG        50.4840   94.3530   42.4610 C.ar   65  HIS65       0.0817
     13  ND1       51.8520   94.2250   42.5770 N.ar   65  HIS65      -0.2268
     14  CD2       50.0690   93.3090   41.7050 C.ar   65  HIS65       0.1154
     15  CE1       52.2470   93.1500   41.9200 C.ar   65  HIS65       0.1986
     16  NE2       51.1840   92.5770   41.3820 N.ar   65  HIS65      -0.2212
     17  N         45.0650   92.1360   44.7560 N.3    68  GLN68      -0.1231
     18  CA        44.9420   91.2060   43.6390 C.3    68  GLN68       0.1698
     19  C         45.5880   89.8560   43.9730 C.2    68  GLN68       0.2592
     20  O         45.0020   88.8040   43.7370 O.2    68  GLN68      -0.2718
     21  CB        45.6100   91.7950   42.3980 C.3    68  GLN68       0.0381
     22  CG        45.6420   90.8440   41.2230 C.3    68  GLN68       0.0905
     23  CD        46.9210   90.9550   40.4210 C.2    68  GLN68       0.2608
     24  OE1       47.2030   91.9850   39.8150 O.2    68  GLN68      -0.2717
     25  NE2       47.7070   89.8880   40.4190 N.am   68  GLN68      -0.0878
     26  N         46.8030   89.8880   44.5100 N.am   69  HIS69      -0.1976
     27  CA        47.5050   88.6630   44.8810 C.3    69  HIS69       0.1656
     28  C         46.7690   87.9040   45.9730 C.2    69  HIS69       0.2291
     29  O         46.6060   86.6850   45.9010 O.2    69  HIS69      -0.2864
     30  CB        48.9100   88.9760   45.3940 C.3    69  HIS69       0.0771
     31  CG        49.9420   89.0680   44.3190 C.ar   69  HIS69       0.0820
     32  ND1       50.9690   88.1570   44.1980 N.ar   69  HIS69      -0.2267
     33  CD2       50.1110   89.9640   43.3170 C.ar   69  HIS69       0.1154
     34  CE1       51.7270   88.4900   43.1680 C.ar   69  HIS69       0.1986
     35  NE2       51.2280   89.5830   42.6160 N.ar   69  HIS69      -0.2212
     36  N         43.4940   85.3380   45.7320 N.3    72  PHE72      -0.1227
     37  CA        43.6440   83.9420   45.3170 C.3    72  PHE72       0.1736
     38  C         43.9410   83.0090   46.4850 C.2    72  PHE72       0.2595
     39  O         43.8440   81.7890   46.3490 O.2    72  PHE72      -0.2718
     40  CB        44.7930   83.7900   44.3120 C.3    72  PHE72       0.0547
     41  CG        44.5250   84.4000   42.9690 C.ar   72  PHE72      -0.0202
     42  CD1       44.7300   85.7590   42.7510 C.ar   72  PHE72      -0.0042
     43  CD2       44.1050   83.6050   41.9080 C.ar   72  PHE72      -0.0042
     44  CE1       44.5260   86.3120   41.4930 C.ar   72  PHE72      -0.0003
     45  CE2       43.8980   84.1520   40.6460 C.ar   72  PHE72      -0.0003
     46  CZ        44.1100   85.5050   40.4390 C.ar   72  PHE72      -0.0000
     47  N         44.2990   83.5890   47.6250 N.am   73  LEU73      -0.1980
     48  CA        44.6830   82.8170   48.7970 C.3    73  LEU73       0.1596
     49  C         43.6010   82.3380   49.7670 C.2    73  LEU73       0.2287
     50  O         43.9220   81.9290   50.8850 O.2    73  LEU73      -0.2864
     51  CB        45.7630   83.5910   49.5610 C.3    73  LEU73       0.0297
     52  CG        47.1910   83.4720   48.9980 C.3    73  LEU73       0.0022
     53  CD1       47.1930   83.6440   47.4870 C.3    73  LEU73       0.0001
     54  CD2       48.0940   84.5120   49.6580 C.3    73  LEU73       0.0001
     55  N         44.4350   80.0960   35.3920 N.3    95  SER95      -0.1202
     56  CA        43.9870   81.3770   35.9220 C.3    95  SER95       0.2020
     57  C         45.1240   82.3530   36.1340 C.2    95  SER95       0.2619
     58  O         46.2750   81.9550   36.3230 O.2    95  SER95      -0.2717
     59  CB        43.2440   81.1950   37.2430 C.3    95  SER95       0.2103
     60  OG        42.6840   82.4250   37.6620 O.3    95  SER95      -0.2182
     61  N         44.7870   83.6390   36.0960 N.am   96  ASN96      -0.1960
     62  CA        45.7590   84.7000   36.2980 C.3    96  ASN96       0.1819
     63  C         45.0200   86.0100   36.5480 C.2    96  ASN96       0.2621
     64  O         43.7910   86.0400   36.5770 O.2    96  ASN96      -0.2715
     65  CB        46.6560   84.8470   35.0680 C.3    96  ASN96       0.1195
     66  CG        48.0860   85.2260   35.4340 C.2    96  ASN96       0.2630
     67  OD1       48.3350   85.8520   36.4690 O.2    96  ASN96      -0.2716
     68  ND2       49.0330   84.8530   34.5790 N.am   96  ASN96      -0.0877
     69  N         45.7720   87.0890   36.7350 N.am   97  ALA97      -0.1963
     70  CA        45.1790   88.3990   36.9690 C.3    97  ALA97       0.1728
     71  C         46.2410   89.4820   36.8740 C.2    97  ALA97       0.2616
     72  O         47.4390   89.2120   37.0150 O.2    97  ALA97      -0.2715
     73  CB        44.5210   88.4420   38.3450 C.3    97  ALA97       0.0334
     74  N         45.8000   90.7080   36.6200 N.am   98  PHE98      -0.1960
     75  CA        46.7170   91.8300   36.5430 C.3    98  PHE98       0.1771
     76  C         46.0980   93.0840   37.1430 C.2    98  PHE98       0.2620
     77  O         44.8800   93.1850   37.2890 O.2    98  PHE98      -0.2715
     78  CB        47.1430   92.1080   35.0950 C.3    98  PHE98       0.0574
     79  CG        46.0110   92.4700   34.1760 C.ar   98  PHE98      -0.0200
     80  CD1       45.3280   91.4810   33.4600 C.ar   98  PHE98      -0.0042
     81  CD2       45.6410   93.8010   34.0020 C.ar   98  PHE98      -0.0042
     82  CE1       44.2970   91.8160   32.5790 C.ar   98  PHE98      -0.0003
     83  CE2       44.6060   94.1490   33.1200 C.ar   98  PHE98      -0.0003
     84  CZ        43.9360   93.1540   32.4090 C.ar   98  PHE98      -0.0000
     85  N         46.9570   94.0360   37.4900 N.am   99  THR99      -0.1937
     86  CA        46.5300   95.3020   38.0650 C.3    99  THR99       0.2028
     87  C         47.1350   96.4730   37.3050 C.2    99  THR99       0.2642
     88  O         48.3560   96.5840   37.1950 O.2    99  THR99      -0.2714
     89  CB        46.9710   95.4330   39.5280 C.3    99  THR99       0.1808
     90  OG1       46.3930   94.3750   40.2980 O.3    99  THR99      -0.2208
     91  CG2       46.5290   96.7760   40.0900 C.3    99  THR99       0.0379
     92  N         46.2740   97.3390   36.7830 N.am  100  SER100     -0.1949
     93  CA        46.7170   98.5280   36.0590 C.3   100  SER100      0.1924
     94  C         46.3370   99.7680   36.8740 C.2   100  SER100      0.2314
     95  O         45.9410   99.6600   38.0370 O.2   100  SER100     -0.2863
     96  CB        46.0620   98.5930   34.6740 C.3   100  SER100      0.2116
     97  OG        44.6510   98.7270   34.7840 O.3   100  SER100     -0.2180
     98  N         40.7570   86.4170   35.8190 N.3   107  TYR107     -0.1241
     99  CA        40.2100   85.5430   34.7930 C.3   107  TYR107      0.1605
    100  C         40.6520   84.0870   34.9150 C.2   107  TYR107      0.2264
    101  O         41.6580   83.7870   35.5440 O.2   107  TYR107     -0.2867
    102  CB        40.5940   86.0940   33.4170 C.3   107  TYR107      0.0534
    103  CG        42.0770   86.3480   33.2580 C.ar  107  TYR107     -0.0201
    104  CD1       42.9440   85.3270   32.8570 C.ar  107  TYR107     -0.0009
    105  CD2       42.6180   87.6160   33.5010 C.ar  107  TYR107     -0.0009
    106  CE1       44.3110   85.5610   32.6940 C.ar  107  TYR107      0.0417
    107  CE2       43.9840   87.8610   33.3450 C.ar  107  TYR107      0.0417
    108  CZ        44.8230   86.8320   32.9390 C.ar  107  TYR107      0.1957
    109  OH        46.1690   87.0720   32.7630 O.3   107  TYR107     -0.2866
    110  N         52.8800   86.1250   50.9200 N.3   139  GLU139     -0.1245
    111  CA        52.6740   86.6730   49.5850 C.3   139  GLU139      0.1567
    112  C         53.3560   88.0250   49.3530 C.2   139  GLU139      0.2260
    113  O         53.6290   88.4000   48.2080 O.2   139  GLU139     -0.2867
    114  CB        51.1740   86.7760   49.2790 C.3   139  GLU139      0.0388
    115  CG        50.8630   87.0310   47.8050 C.3   139  GLU139      0.1160
    116  CD        51.3650   85.9170   46.8870 C.2   139  GLU139      0.3649
    117  OE1       51.3840   86.1150   45.6500 O.co2 139  GLU139     -0.2457
    118  OE2       51.7350   84.8400   47.4020 O.co2 139  GLU139     -0.2457
    119  N         58.6160   90.2640   42.5470 N.3   146  GLU146     -0.1245
    120  CA        58.1180   90.7040   41.2560 C.3   146  GLU146      0.1567
    121  C         58.7120   92.0640   40.9150 C.2   146  GLU146      0.2260
    122  O         59.1470   92.3010   39.7840 O.2   146  GLU146     -0.2867
    123  CB        56.5960   90.7940   41.2790 C.3   146  GLU146      0.0388
    124  CG        55.9820   91.1920   39.9530 C.3   146  GLU146      0.1160
    125  CD        54.4670   91.1260   39.9800 C.2   146  GLU146      0.3649
    126  OE1       53.8300   91.5740   38.9980 O.co2 146  GLU146     -0.2457
    127  OE2       53.9140   90.6220   40.9860 O.co2 146  GLU146     -0.2457
    128  N         62.5610   91.8760   39.8870 N.3   149  LYS149     -0.1231
    129  CA        62.8900   91.4500   38.5410 C.3   149  LYS149      0.1693
    130  C         62.6900   92.5930   37.5470 C.2   149  LYS149      0.2592
    131  O         63.1920   92.5380   36.4260 O.2   149  LYS149     -0.2718
    132  CB        62.0280   90.2460   38.1460 C.3   149  LYS149      0.0285
    133  CG        60.7330   90.6010   37.4550 C.3   149  LYS149      0.0035
    134  CD        59.9400   89.3580   37.0930 C.3   149  LYS149      0.0206
    135  CE        58.7460   89.7140   36.2160 C.3   149  LYS149      0.1093
    136  NZ        58.0000   90.8910   36.7460 N.3   149  LYS149     -0.1314
    137  N         61.9590   93.6270   37.9610 N.am  150  ASN150     -0.1974
    138  CA        61.7060   94.7700   37.0930 C.3   150  ASN150      0.1688
    139  C         62.6670   95.9190   37.3360 C.2   150  ASN150      0.2292
    140  O         62.8300   96.7800   36.4790 O.2   150  ASN150     -0.2864
    141  CB        60.2800   95.2930   37.2830 C.3   150  ASN150      0.1181
    142  CG        59.2350   94.2920   36.8720 C.2   150  ASN150      0.2629
    143  OD1       59.4740   93.4490   36.0070 O.2   150  ASN150     -0.2716
    144  ND2       58.0560   94.3870   37.4760 N.am  150  ASN150     -0.0877
    145  N         62.5330   99.1400   30.5030 N.3   155  ALA155     -0.1231
    146  CA        61.1620   99.5540   30.2180 C.3   155  ALA155      0.1694
    147  C         60.4540  100.0590   31.4750 C.2   155  ALA155      0.2592
    148  O         59.8090  101.1080   31.4530 O.2   155  ALA155     -0.2718
    149  CB        60.3800   98.3920   29.5970 C.3   155  ALA155      0.0304
    150  N         60.5840   99.3200   32.5720 N.am  156  TRP156     -0.1976
    151  CA        59.9480   99.7230   33.8210 C.3   156  TRP156      0.1640
    152  C         60.6050  100.9600   34.4210 C.2   156  TRP156      0.2290
    153  O         59.9270  101.8120   34.9920 O.2   156  TRP156     -0.2864
    154  CB        59.9740   98.5770   34.8400 C.3   156  TRP156      0.0576
    155  CG        59.0410   97.4620   34.4970 C.ar  156  TRP156      0.0006
    156  CD1       59.2840   96.4150   33.6530 C.ar  156  TRP156      0.0946
    157  CD2       57.6900   97.3070   34.9520 C.ar  156  TRP156      0.0152
    158  NE1       58.1690   95.6150   33.5560 N.ar  156  TRP156     -0.2442
    159  CE2       57.1770   96.1370   34.3450 C.ar  156  TRP156      0.0810
    160  CE3       56.8660   98.0400   35.8190 C.ar  156  TRP156      0.0012
    161  CZ2       55.8700   95.6840   34.5740 C.ar  156  TRP156      0.0191
    162  CZ3       55.5620   97.5890   36.0470 C.ar  156  TRP156      0.0001
    163  CH2       55.0810   96.4170   35.4270 C.ar  156  TRP156      0.0015
    164  N         59.2550  103.7900   32.6260 N.3   159  PHE159     -0.1241
    165  CA        57.8460  103.8760   32.9720 C.3   159  PHE159      0.1605
    166  C         57.6680  104.7200   34.2390 C.2   159  PHE159      0.2264
    167  O         56.8820  105.6780   34.2570 O.2   159  PHE159     -0.2867
    168  CB        57.2940  102.4620   33.1790 C.3   159  PHE159      0.0534
    169  CG        55.8930  102.4210   33.7160 C.ar  159  PHE159     -0.0203
    170  CD1       55.6500  102.0530   35.0390 C.ar  159  PHE159     -0.0042
    171  CD2       54.8170  102.7510   32.9030 C.ar  159  PHE159     -0.0042
    172  CE1       54.3470  102.0130   35.5470 C.ar  159  PHE159     -0.0003
    173  CE2       53.5080  102.7160   33.3970 C.ar  159  PHE159     -0.0003
    174  CZ        53.2740  102.3450   34.7210 C.ar  159  PHE159     -0.0000
    175  N         52.9740  101.8920   41.6350 N.3   176  GLY176     -0.1210
    176  CA        51.9230  100.8860   41.6980 C.3   176  GLY176      0.1956
    177  C         52.2540   99.4440   42.0500 C.2   176  GLY176      0.2612
    178  O         51.4030   98.7230   42.5640 O.2   176  GLY176     -0.2717
    179  N         53.4760   99.0150   41.7830 N.am  177  THR177     -0.1952
    180  CA        53.8700   97.6510   42.0670 C.3   177  THR177      0.1897
    181  C         53.9770   97.3540   43.5620 C.2   177  THR177      0.2313
    182  O         53.5070   96.3130   44.0320 O.2   177  THR177     -0.2863
    183  CB        55.2390   97.3320   41.4170 C.3   177  THR177      0.1794
    184  OG1       55.1640   97.5610   40.0050 O.3   177  THR177     -0.2208
    185  CG2       55.6290   95.8750   41.6680 C.3   177  THR177      0.0378
    186  N         54.0080   74.8550   42.3390 N.3   777  PHE777     -0.1241
    187  CA        53.8290   76.2910   42.4830 C.3   777  PHE777      0.1605
    188  C         53.4160   76.6400   43.9200 C.2   777  PHE777      0.2264
    189  O         53.9240   77.5900   44.5250 O.2   777  PHE777     -0.2867
    190  CB        52.7500   76.7730   41.5160 C.3   777  PHE777      0.0534
    191  CG        52.5350   78.2550   41.5410 C.ar  777  PHE777     -0.0203
    192  CD1       53.3100   79.0930   40.7470 C.ar  777  PHE777     -0.0042
    193  CD2       51.5650   78.8160   42.3650 C.ar  777  PHE777     -0.0042
    194  CE1       53.1220   80.4760   40.7700 C.ar  777  PHE777     -0.0003
    195  CE2       51.3640   80.1980   42.4010 C.ar  777  PHE777     -0.0003
    196  CZ        52.1420   81.0300   41.6030 C.ar  777  PHE777     -0.0000
    197  N         56.6600   78.3720   45.8050 N.3   781  ARG781     -0.1245
    198  CA        56.3520   79.8040   45.8230 C.3   781  ARG781      0.1563
    199  C         55.3650   80.2390   46.9130 C.2   781  ARG781      0.2260
    200  O         55.7040   81.0570   47.7650 O.2   781  ARG781     -0.2867
    201  CB        55.8100   80.2760   44.4700 C.3   781  ARG781      0.0307
    202  CG        55.1750   81.6600   44.5730 C.3   781  ARG781      0.0489
    203  CD        54.9280   82.3120   43.2310 C.3   781  ARG781      0.2205
    204  NE        53.8870   83.3300   43.3330 N.pl3 781  ARG781     -0.0865
    205  CZ        53.5410   84.1580   42.3530 C.cat 781  ARG781      0.5346
    206  NH1       54.1600   84.1020   41.1800 N.pl3 781  ARG781      0.1354
    207  NH2       52.5610   85.0330   42.5450 N.pl3 781  ARG781      0.1354
    208  N         59.2130   84.8960   42.7960 N.3   788  TYR788     -0.1227
    209  CA        58.0240   85.1310   41.9860 C.3   788  TYR788      0.1736
    210  C         57.9710   84.1410   40.8260 C.2   788  TYR788      0.2595
    211  O         56.8940   83.7120   40.4050 O.2   788  TYR788     -0.2718
    212  CB        58.0510   86.5590   41.4370 C.3   788  TYR788      0.0548
    213  CG        56.9470   86.8640   40.4530 C.ar  788  TYR788     -0.0200
    214  CD1       55.6340   87.0530   40.8810 C.ar  788  TYR788     -0.0009
    215  CD2       57.2170   86.9620   39.0860 C.ar  788  TYR788     -0.0009
    216  CE1       54.6090   87.3370   39.9680 C.ar  788  TYR788      0.0417
    217  CE2       56.2070   87.2440   38.1650 C.ar  788  TYR788      0.0417
    218  CZ        54.9050   87.4300   38.6130 C.ar  788  TYR788      0.1957
    219  OH        53.9100   87.7050   37.7030 O.3   788  TYR788     -0.2866
    220  N         59.1430   83.7910   40.3080 N.am  789  ILE789     -0.1980
    221  CA        59.2400   82.8520   39.1990 C.3   789  ILE789      0.1595
    222  C         59.5820   81.4440   39.6790 C.2   789  ILE789      0.2287
    223  O         60.7030   81.1650   40.1000 O.2   789  ILE789     -0.2864
    224  CB        60.3090   83.3040   38.1750 C.3   789  ILE789      0.0276
    225  CG1       59.9560   84.6930   37.6320 C.3   789  ILE789      0.0022
    226  CG2       60.3900   82.3000   37.0320 C.3   789  ILE789      0.0022
    227  CD1       60.9960   85.2670   36.6890 C.3   789  ILE789      0.0001
@<TRIPOS>BOND
     1   149   146    1
     2   146   145    1
     3   146   147    1
     4   148   147    2
     5   147   150   am
     6    84    82   ar
     7    84    83   ar
     8   150   151    1
     9    82    80   ar
    10   164   165    1
    11   106   104   ar
    12   106   108   ar
    13   109   108    1
    14   104   103   ar
    15   171   173   ar
    16   171   169   ar
    17   108   107   ar
    18   165   168    1
    19   165   166    1
    20    83    81   ar
    21   168   169    1
    22   103   102    1
    23   103   105   ar
    24   107   105   ar
    25   173   174   ar
    26   102    99    1
    27    80    79   ar
    28   158   156   ar
    29   158   159   ar
    30   156   155   ar
    31   169   170   ar
    32   151   152    1
    33   151   154    1
    34    81    79   ar
    35    79    78    1
    36   166   167    2
    37   159   161   ar
    38   159   157   ar
    39   152   153    2
    40   155   154    1
    41   155   157   ar
    42   161   163   ar
    43    68    66   am
    44    96    97    1
    45    96    93    1
    46   174   172   ar
    47    99   100    1
    48    99    98    1
    49   100   101    2
    50   157   160   ar
    51   170   172   ar
    52    65    66    1
    53    65    62    1
    54    78    75    1
    55    55    56    1
    56   163   162   ar
    57    66    67    2
    58   160   162   ar
    59    56    57    1
    60    56    59    1
    61   143   142    2
    62    93    92    1
    63    93    94    1
    64    61    57   am
    65    61    62    1
    66    57    58    2
    67   135   136    1
    68   135   134    1
    69    62    63    1
    70   131   130    2
    71   140   139    2
    72    75    74    1
    73    75    76    1
    74    63    64    2
    75    63    69   am
    76    74    71   am
    77   227   225    1
    78    69    70    1
    79    92    87   am
    80   142   141    1
    81   142   144   am
    82    94    95    2
    83    71    70    1
    84    71    72    2
    85    70    73    1
    86   226   224    1
    87   138   141    1
    88   138   139    1
    89   138   137    1
    90   134   133    1
    91    76    77    2
    92    76    85   am
    93    88    87    2
    94    59    60    1
    95    87    86    1
    96   133   132    1
    97    85    86    1
    98   130   137   am
    99   130   129    1
   100   225   224    1
   101   219   218    1
   102    86    89    1
   103   132   129    1
   104   217   218   ar
   105   217   215   ar
   106   224   221    1
   107   129   128    1
   108   218   216   ar
   109   126   125   ar
   110   215   213   ar
   111   221   222    1
   112   221   220    1
   113    89    91    1
   114    89    90    1
   115   222   223    2
   116     6     5    1
   117   122   121    2
   118    24    23    2
   119   124   125    1
   120   124   123    1
   121   216   214   ar
   122   125   127   ar
   123   184   183    1
   124   220   210   am
   125   211   210    2
   126    25    23   am
   127    23    22    1
   128    46    45   ar
   129    46    44   ar
   130   213   214   ar
   131   213   212    1
   132    45    43   ar
   133   192   194   ar
   134   192   191   ar
   135   194   196   ar
   136   210   209    1
   137     1     2    1
   138   121   120    1
   139     5     2    1
   140   206   205    1
   141    22    21    1
   142   120   123    1
   143   120   119    1
   144    16    14   ar
   145    16    15   ar
   146   183   185    1
   147   183   180    1
   148   212   209    1
   149    44    42   ar
   150   190   191    1
   151   190   187    1
   152   191   193   ar
   153   196   195   ar
   154   175   176    1
   155     2     3    1
   156   176   177    1
   157    14    12   ar
   158   179   177   am
   159   179   180    1
   160     3     4    2
   161    43    41   ar
   162    15    13   ar
   163   209   208    1
   164   177   178    2
   165   180   181    1
   166   186   187    1
   167   205   207    1
   168   205   204    2
   169   193   195   ar
   170    21    18    1
   171    12    13   ar
   172    12    11    1
   173   187   188    1
   174    35    34   ar
   175    35    33   ar
   176    42    41   ar
   177    41    40    1
   178    11     8    1
   179    34    32   ar
   180   203   204    1
   181   203   202    1
   182    33    31   ar
   183     8     7    1
   184     8     9    1
   185   181   182    2
   186    18    19    1
   187    18    17    1
   188    20    19    2
   189   188   189    2
   190    19    26   am
   191    10     9    2
   192    32    31   ar
   193    40    37    1
   194    31    30    1
   195   201   202    1
   196   201   198    1
   197    26    27    1
   198    27    30    1
   199    27    28    1
   200    37    36    1
   201    37    38    1
   202   117   116   ar
   203   197   198    1
   204   198   199    1
   205    29    28    2
   206    39    38    2
   207    38    47   am
   208   116   118   ar
   209   116   115    1
   210   199   200    2
   211    53    52    1
   212    47    48    1
   213   115   114    1
   214   113   112    2
   215    48    51    1
   216    48    49    1
   217    52    51    1
   218    52    54    1
   219   114   111    1
   220   112   111    1
   221   111   110    1
   222    49    50    2
