@<TRIPOS>MOLECULE
tmp/2g5bF01.pdb
 95 90 0 0 0
SMALL
GASTEIGER

@<TRIPOS>ATOM
      1  N        209.6560  119.0640   48.1070 N.3    27  PHE27      -0.1241
      2  CA       209.6600  119.5990   49.4650 C.3    27  PHE27       0.1605
      3  C        210.0930  118.5320   50.4490 C.2    27  PHE27       0.2264
      4  O        210.1210  117.3450   50.1200 O.2    27  PHE27      -0.2867
      5  CB       208.2760  120.1520   49.8430 C.3    27  PHE27       0.0534
      6  CG       207.2200  119.1030   50.0000 C.ar   27  PHE27      -0.0203
      7  CD1      206.8000  118.3520   48.9170 C.ar   27  PHE27      -0.0042
      8  CD2      206.6560  118.8530   51.2440 C.ar   27  PHE27      -0.0042
      9  CE1      205.8300  117.3610   49.0700 C.ar   27  PHE27      -0.0003
     10  CE2      205.6820  117.8600   51.4110 C.ar   27  PHE27      -0.0003
     11  CZ       205.2710  117.1160   50.3230 C.ar   27  PHE27      -0.0000
     12  N        209.2240  116.9100   57.2770 N.3    31  ASP31      -0.1225
     13  CA       208.8500  118.0690   58.0690 C.3    31  ASP31       0.1805
     14  C        207.3530  118.2860   58.1710 C.2    31  ASP31       0.2597
     15  O        206.8790  118.9770   59.0800 O.2    31  ASP31      -0.2718
     16  CB       209.4510  119.3440   57.4700 C.3    31  ASP31       0.1424
     17  CG       210.9670  119.2950   57.3660 C.2    31  ASP31       0.3668
     18  OD1      211.5990  118.5250   58.1170 O.co2  31  ASP31      -0.2456
     19  OD2      211.5280  120.0460   56.5400 O.co2  31  ASP31      -0.2456
     20  N        206.5980  117.6770   57.2670 N.am   32  ASN32      -0.1974
     21  CA       205.1710  117.9350   57.2200 C.3    32  ASN32       0.1688
     22  C        204.1150  116.9970   57.7640 C.2    32  ASN32       0.2292
     23  O        204.3180  115.7900   57.9340 O.2    32  ASN32      -0.2864
     24  CB       204.8010  118.2610   55.7790 C.3    32  ASN32       0.1181
     25  CG       205.3690  119.5850   55.3220 C.2    32  ASN32       0.2629
     26  OD1      204.7970  120.6470   55.5890 O.2    32  ASN32      -0.2716
     27  ND2      206.5070  119.5350   54.6380 N.am   32  ASN32      -0.0877
     28  N        199.1310  118.8230   51.4770 N.3   100  ARG100     -0.1245
     29  CA       200.1560  119.1330   52.4580 C.3   100  ARG100      0.1563
     30  C        199.4380  119.9770   53.5050 C.2   100  ARG100      0.2260
     31  O        198.8120  120.9760   53.1750 O.2   100  ARG100     -0.2867
     32  CB       201.3100  119.9370   51.8550 C.3   100  ARG100      0.0307
     33  CG       202.3530  120.3170   52.8980 C.3   100  ARG100      0.0489
     34  CD       203.6390  120.8600   52.2850 C.3   100  ARG100      0.2205
     35  NE       203.4950  122.2380   51.8320 N.pl3 100  ARG100     -0.0865
     36  CZ       204.4430  122.9020   51.1800 C.cat 100  ARG100      0.5346
     37  NH1      205.5970  122.3080   50.9060 N.pl3 100  ARG100      0.1354
     38  NH2      204.2440  124.1610   50.8110 N.pl3 100  ARG100      0.1354
     39  N        200.1850  122.2610   56.0570 N.3   102  ASN102     -0.1225
     40  CA       201.1920  123.1840   56.5540 C.3   102  ASN102      0.1785
     41  C        200.9530  123.7070   57.9710 C.2   102  ASN102      0.2598
     42  O        200.0430  124.5100   58.1990 O.2   102  ASN102     -0.2718
     43  CB       201.2840  124.3630   55.5900 C.3   102  ASN102      0.1169
     44  CG       202.4710  125.2530   55.8640 C.2   102  ASN102      0.2627
     45  OD1      202.7800  125.5580   57.0190 O.2   102  ASN102     -0.2716
     46  ND2      203.1250  125.6880   54.7920 N.am  102  ASN102     -0.0877
     47  N        201.7900  123.2710   58.9120 N.am  103  GLY103     -0.1942
     48  CA       201.6610  123.7140   60.2920 C.3   103  GLY103      0.2014
     49  C        202.7010  124.7540   60.6910 C.2   103  GLY103      0.2640
     50  O        202.7700  125.1730   61.8510 O.2   103  GLY103     -0.2714
     51  N        203.5220  125.1620   59.7280 N.am  104  SER104     -0.1935
     52  CA       204.5630  126.1580   59.9610 C.3   104  SER104      0.2055
     53  C        203.9450  127.4820   60.4510 C.2   104  SER104      0.2643
     54  O        203.0110  128.0020   59.8390 O.2   104  SER104     -0.2714
     55  CB       205.3430  126.3720   58.6580 C.3   104  SER104      0.2130
     56  OG       206.2930  127.4130   58.7810 O.3   104  SER104     -0.2179
     57  N        204.4610  128.0200   61.5580 N.am  105  ASP105     -0.1971
     58  CA       203.9540  129.2760   62.1310 C.3   105  ASP105      0.1709
     59  C        202.4920  129.1330   62.5490 C.2   105  ASP105      0.2293
     60  O        201.7460  130.1120   62.5820 O.2   105  ASP105     -0.2864
     61  CB       204.0550  130.4230   61.1210 C.3   105  ASP105      0.1436
     62  CG       205.4010  130.4810   60.4370 C.2   105  ASP105      0.3671
     63  OD1      205.4300  130.3940   59.1930 O.co2 105  ASP105     -0.2456
     64  OD2      206.4260  130.6130   61.1350 O.co2 105  ASP105     -0.2456
     65  N        200.1340  128.0470   60.9380 N.3   107  ARG107     -0.1245
     66  CA       199.2510  128.4280   59.8410 C.3   107  ARG107      0.1563
     67  C        198.0700  127.4440   59.7680 C.2   107  ARG107      0.2260
     68  O        196.9100  127.8410   59.8600 O.2   107  ARG107     -0.2867
     69  CB       200.0280  128.4300   58.5190 C.3   107  ARG107      0.0307
     70  CG       200.9510  129.6350   58.3240 C.3   107  ARG107      0.0489
     71  CD       201.8160  129.4640   57.0780 C.3   107  ARG107      0.2205
     72  NE       202.1400  130.7290   56.4170 N.pl3 107  ARG107     -0.0865
     73  CZ       202.9540  131.6550   56.9130 C.cat 107  ARG107      0.5346
     74  NH1      203.5380  131.4700   58.0860 N.pl3 107  ARG107      0.1354
     75  NH2      203.1870  132.7680   56.2350 N.pl3 107  ARG107      0.1354
     76  N        196.8730  125.0780   57.1950 N.3   109  TYR109     -0.1241
     77  CA       196.0240  125.1620   56.0180 C.3   109  TYR109      0.1605
     78  C        196.5570  124.2610   54.9150 C.2   109  TYR109      0.2264
     79  O        197.7270  123.8640   54.9240 O.2   109  TYR109     -0.2867
     80  CB       195.8960  126.6210   55.5370 C.3   109  TYR109      0.0534
     81  CG       197.1890  127.3510   55.2020 C.ar  109  TYR109     -0.0201
     82  CD1      197.4730  128.5900   55.7810 C.ar  109  TYR109     -0.0009
     83  CD2      198.0900  126.8470   54.2550 C.ar  109  TYR109     -0.0009
     84  CE1      198.6150  129.3170   55.4240 C.ar  109  TYR109      0.0417
     85  CE2      199.2420  127.5670   53.8910 C.ar  109  TYR109      0.0417
     86  CZ       199.4910  128.8030   54.4800 C.ar  109  TYR109      0.1957
     87  OH       200.5970  129.5380   54.1150 O.3   109  TYR109     -0.2866
     88  N        197.9180  124.0770   51.6250 N.3   111  ASP111     -0.1239
     89  CA       198.4860  124.9200   50.5710 C.3   111  ASP111      0.1674
     90  C        198.9240  124.2400   49.2830 C.2   111  ASP111      0.2266
     91  O        199.3280  124.9100   48.3290 O.2   111  ASP111     -0.2867
     92  CB       199.6330  125.7920   51.1120 C.3   111  ASP111      0.1410
     93  CG       200.8010  124.9910   51.6650 C.2   111  ASP111      0.3668
     94  OD1      201.7790  125.6420   52.0810 O.co2 111  ASP111     -0.2456
     95  OD2      200.7610  123.7430   51.6920 O.co2 111  ASP111     -0.2456
@<TRIPOS>BOND
     1     1     2    1
     2    91    90    2
     3     7     9   ar
     4     7     6   ar
     5     9    11   ar
     6    90    89    1
     7     2     5    1
     8     2     3    1
     9     5     6    1
    10     6     8   ar
    11     4     3    2
    12    11    10   ar
    13    89    92    1
    14    89    88    1
    15    38    36    1
    16    37    36    1
    17    92    93    1
    18    36    35    2
    19     8    10   ar
    20    28    29    1
    21    93    95   ar
    22    93    94   ar
    23    35    34    1
    24    32    29    1
    25    32    33    1
    26    34    33    1
    27    29    30    1
    28    31    30    2
    29    85    83   ar
    30    85    86   ar
    31    87    86    1
    32    83    81   ar
    33    86    84   ar
    34    27    25   am
    35    46    44   am
    36    78    79    2
    37    78    77    1
    38    81    80    1
    39    81    82   ar
    40    25    26    2
    41    25    24    1
    42    84    82   ar
    43    80    77    1
    44    43    44    1
    45    43    40    1
    46    24    21    1
    47    44    45    2
    48    77    76    1
    49    39    40    1
    50    75    73    1
    51    72    73    2
    52    72    71    1
    53    19    17   ar
    54    40    41    1
    55    73    74    1
    56    71    70    1
    57    21    20    1
    58    21    22    1
    59    20    14   am
    60    12    13    1
    61    17    16    1
    62    17    18   ar
    63    16    13    1
    64    22    23    2
    65    41    42    2
    66    41    47   am
    67    13    14    1
    68    14    15    2
    69    70    69    1
    70    69    66    1
    71    55    56    1
    72    55    52    1
    73    47    48    1
    74    63    62   ar
    75    51    52    1
    76    51    49   am
    77    67    66    1
    78    67    68    2
    79    54    53    2
    80    66    65    1
    81    52    53    1
    82    48    49    1
    83    62    61    1
    84    62    64   ar
    85    53    57   am
    86    49    50    2
    87    61    58    1
    88    57    58    1
    89    58    59    1
    90    59    60    2
