@<TRIPOS>MOLECULE
tmp/2g5bF00.pdb
 118 114 0 0 0
SMALL
GASTEIGER

@<TRIPOS>ATOM
      1  N        209.3690  114.7540   55.4460 N.3    30  ILE30      -0.1231
      2  CA       209.5030  114.5310   56.8920 C.3    30  ILE30       0.1692
      3  C        209.0650  115.6920   57.7640 C.2    30  ILE30       0.2592
      4  O        208.5860  115.4830   58.8700 O.2    30  ILE30      -0.2718
      5  CB       210.9460  114.2120   57.3070 C.3    30  ILE30       0.0266
      6  CG1      211.9040  115.0280   56.4600 C.3    30  ILE30       0.0019
      7  CG2      211.2150  112.7310   57.2090 C.3    30  ILE30       0.0020
      8  CD1      213.3300  114.8710   56.8840 C.3    30  ILE30       0.0001
      9  N        209.2240  116.9100   57.2770 N.am   31  ASP31      -0.1974
     10  CA       208.8500  118.0690   58.0690 C.3    31  ASP31       0.1709
     11  C        207.3530  118.2860   58.1710 C.2    31  ASP31       0.2293
     12  O        206.8790  118.9770   59.0800 O.2    31  ASP31      -0.2864
     13  CB       209.4510  119.3440   57.4700 C.3    31  ASP31       0.1436
     14  CG       210.9670  119.2950   57.3660 C.2    31  ASP31       0.3671
     15  OD1      211.5990  118.5250   58.1170 O.co2  31  ASP31      -0.2456
     16  OD2      211.5280  120.0460   56.5400 O.co2  31  ASP31      -0.2456
     17  N        202.9730  117.6150   58.0410 N.3    33  TYR33      -0.1241
     18  CA       201.7680  116.9320   58.4750 C.3    33  TYR33       0.1605
     19  C        201.1170  116.8010   57.1050 C.2    33  TYR33       0.2264
     20  O        201.2540  117.7000   56.2740 O.2    33  TYR33      -0.2867
     21  CB       200.8790  117.8530   59.3190 C.3    33  TYR33       0.0534
     22  CG       201.1010  117.8220   60.8110 C.ar   33  TYR33      -0.0201
     23  CD1      202.3820  117.9070   61.3520 C.ar   33  TYR33      -0.0009
     24  CD2      200.0170  117.7360   61.6880 C.ar   33  TYR33      -0.0009
     25  CE1      202.5830  117.9090   62.7320 C.ar   33  TYR33       0.0417
     26  CE2      200.2040  117.7350   63.0750 C.ar   33  TYR33       0.0417
     27  CZ       201.4900  117.8230   63.5880 C.ar   33  TYR33       0.1957
     28  OH       201.6850  117.8240   64.9510 O.3    33  TYR33      -0.2866
     29  N        194.5180  113.3390   59.1240 N.3    50  PHE50      -0.1241
     30  CA       195.8920  113.7300   58.8740 C.3    50  PHE50       0.1605
     31  C        196.8450  112.8770   59.6700 C.2    50  PHE50       0.2264
     32  O        196.4380  112.1750   60.6030 O.2    50  PHE50      -0.2867
     33  CB       196.1330  115.2370   59.1640 C.3    50  PHE50       0.0534
     34  CG       196.1020  115.6350   60.6290 C.ar   50  PHE50      -0.0203
     35  CD1      196.8410  114.9480   61.5940 C.ar   50  PHE50      -0.0042
     36  CD2      195.3810  116.7570   61.0290 C.ar   50  PHE50      -0.0042
     37  CE1      196.8610  115.3770   62.9300 C.ar   50  PHE50      -0.0003
     38  CE2      195.3960  117.1960   62.3580 C.ar   50  PHE50      -0.0003
     39  CZ       196.1380  116.5050   63.3090 C.ar   50  PHE50      -0.0000
     40  N        200.6130  113.1500   61.6410 N.3    52  ARG52      -0.1231
     41  CA       201.6120  114.0840   62.1370 C.3    52  ARG52       0.1694
     42  C        203.0060  113.7020   61.6420 C.2    52  ARG52       0.2592
     43  O        203.2190  112.5720   61.2070 O.2    52  ARG52      -0.2718
     44  CB       201.5720  114.1020   63.6690 C.3    52  ARG52       0.0321
     45  CG       200.1920  114.4730   64.2560 C.3    52  ARG52       0.0489
     46  CD       200.2960  114.8800   65.7280 C.3    52  ARG52       0.2205
     47  NE       199.0800  115.5200   66.2430 N.pl3  52  ARG52      -0.0865
     48  CZ       197.9330  114.8910   66.5040 C.cat  52  ARG52       0.5346
     49  NH1      197.8140  113.5830   66.3060 N.pl3  52  ARG52       0.1354
     50  NH2      196.8960  115.5780   66.9630 N.pl3  52  ARG52       0.1354
     51  N        203.9520  114.6390   61.6710 N.am   53  ASN53      -0.1974
     52  CA       205.3030  114.3070   61.2370 C.3    53  ASN53       0.1688
     53  C        206.0290  113.5190   62.3260 C.2    53  ASN53       0.2292
     54  O        205.5170  113.3600   63.4310 O.2    53  ASN53      -0.2864
     55  CB       206.1000  115.5620   60.8800 C.3    53  ASN53       0.1181
     56  CG       206.1270  116.5800   61.9920 C.2    53  ASN53       0.2629
     57  OD1      206.0810  116.2360   63.1700 O.2    53  ASN53      -0.2716
     58  ND2      206.2270  117.8400   61.6230 N.am   53  ASN53      -0.0877
     59  N        208.5980  114.1220   64.3580 N.3    55  VAL55      -0.1231
     60  CA       208.7730  114.8500   65.6080 C.3    55  VAL55       0.1692
     61  C        207.5290  114.8030   66.5030 C.2    55  VAL55       0.2592
     62  O        207.6410  114.8260   67.7280 O.2    55  VAL55      -0.2718
     63  CB       209.1590  116.3170   65.3220 C.3    55  VAL55       0.0266
     64  CG1      209.2400  117.1150   66.6190 C.3    55  VAL55       0.0020
     65  CG2      210.4920  116.3510   64.6160 C.3    55  VAL55       0.0020
     66  N        206.3480  114.7340   65.8990 N.am   56  ASN56      -0.1974
     67  CA       205.1140  114.6710   66.6710 C.3    56  ASN56       0.1688
     68  C        204.5780  113.2490   66.8260 C.2    56  ASN56       0.2292
     69  O        203.3840  113.0480   67.0540 O.2    56  ASN56      -0.2864
     70  CB       204.0490  115.5770   66.0460 C.3    56  ASN56       0.1181
     71  CG       204.3110  117.0520   66.3210 C.2    56  ASN56       0.2629
     72  OD1      203.8620  117.6070   67.3310 O.2    56  ASN56      -0.2716
     73  ND2      205.0620  117.6870   65.4330 N.am   56  ASN56      -0.0877
     74  N        194.8060  111.6050   63.2490 N.3    61  GLU61      -0.1245
     75  CA       193.4820  112.1200   63.6140 C.3    61  GLU61       0.1567
     76  C        192.5430  111.9030   62.4290 C.2    61  GLU61       0.2260
     77  O        192.9600  112.0120   61.2730 O.2    61  GLU61      -0.2867
     78  CB       193.5410  113.6190   63.9210 C.3    61  GLU61       0.0388
     79  CG       194.4460  114.0040   65.0850 C.3    61  GLU61       0.1160
     80  CD       193.9200  113.5510   66.4360 C.2    61  GLU61       0.3649
     81  OE1      192.8660  112.8770   66.4820 O.co2  61  GLU61      -0.2457
     82  OE2      194.5690  113.8730   67.4560 O.co2  61  GLU61      -0.2457
     83  N        201.7900  123.2710   58.9120 N.3   103  GLY103     -0.1210
     84  CA       201.6610  123.7140   60.2920 C.3   103  GLY103      0.1956
     85  C        202.7010  124.7540   60.6910 C.2   103  GLY103      0.2612
     86  O        202.7700  125.1730   61.8510 O.2   103  GLY103     -0.2717
     87  N        203.5220  125.1620   59.7280 N.am  104  SER104     -0.1952
     88  CA       204.5630  126.1580   59.9610 C.3   104  SER104      0.1924
     89  C        203.9450  127.4820   60.4510 C.2   104  SER104      0.2314
     90  O        203.0110  128.0020   59.8390 O.2   104  SER104     -0.2863
     91  CB       205.3430  126.3720   58.6580 C.3   104  SER104      0.2116
     92  OG       206.2930  127.4130   58.7810 O.3   104  SER104     -0.2180
     93  N        202.0910  127.9070   62.8610 N.3   106  TYR106     -0.1241
     94  CA       200.7200  127.6210   63.2660 C.3   106  TYR106      0.1605
     95  C        199.7110  128.0570   62.2010 C.2   106  TYR106      0.2264
     96  O        198.5700  128.4060   62.5230 O.2   106  TYR106     -0.2867
     97  CB       200.3920  128.3160   64.5920 C.3   106  TYR106      0.0534
     98  CG       201.4000  128.0600   65.6830 C.ar  106  TYR106     -0.0201
     99  CD1      202.4640  128.9350   65.8890 C.ar  106  TYR106     -0.0009
    100  CD2      201.2980  126.9370   66.5030 C.ar  106  TYR106     -0.0009
    101  CE1      203.4020  128.7030   66.8870 C.ar  106  TYR106      0.0417
    102  CE2      202.2320  126.6930   67.5040 C.ar  106  TYR106      0.0417
    103  CZ       203.2810  127.5830   67.6910 C.ar  106  TYR106      0.1957
    104  OH       204.2080  127.3600   68.6820 O.3   106  TYR106     -0.2866
    105  N        198.3870  126.1610   59.6270 N.3   108  TRP108     -0.1241
    106  CA       197.3960  125.1000   59.5470 C.3   108  TRP108      0.1605
    107  C        196.3870  125.2480   58.4140 C.2   108  TRP108      0.2264
    108  O        195.2020  125.5050   58.6300 O.2   108  TRP108     -0.2867
    109  CB       196.6810  124.9550   60.8940 C.3   108  TRP108      0.0550
    110  CG       197.6090  124.4720   61.9710 C.ar  108  TRP108      0.0003
    111  CD1      197.8440  125.0640   63.1780 C.ar  108  TRP108      0.0946
    112  CD2      198.4530  123.3130   61.9200 C.ar  108  TRP108      0.0152
    113  NE1      198.7850  124.3490   63.8800 N.ar  108  TRP108     -0.2442
    114  CE2      199.1760  123.2700   63.1320 C.ar  108  TRP108      0.0810
    115  CE3      198.6710  122.3070   60.9660 C.ar  108  TRP108      0.0012
    116  CZ2      200.1030  122.2570   63.4180 C.ar  108  TRP108      0.0191
    117  CZ3      199.5920  121.3020   61.2500 C.ar  108  TRP108      0.0001
    118  CH2      200.2970  121.2870   62.4670 C.ar  108  TRP108      0.0015
@<TRIPOS>BOND
     1     1     2    1
     2    20    19    2
     3     6     8    1
     4     6     5    1
     5    16    14   ar
     6     2     5    1
     7     2     3    1
     8    19    18    1
     9     7     5    1
    10     9     3   am
    11     9    10    1
    12    14    13    1
    13    14    15   ar
    14    13    10    1
    15     3     4    2
    16    17    18    1
    17    10    11    1
    18    11    12    2
    19   107   108    2
    20   107   106    1
    21    18    21    1
    22    91    92    1
    23    91    88    1
    24    30    29    1
    25    30    33    1
    26    30    31    1
    27    83    84    1
    28    33    34    1
    29    21    22    1
    30   106   105    1
    31   106   109    1
    32    31    32    2
    33    87    88    1
    34    87    85   am
    35    90    89    2
    36    88    89    1
    37    84    85    1
    38    34    36   ar
    39    34    35   ar
    40    85    86    2
    41    22    23   ar
    42    22    24   ar
    43    55    52    1
    44    55    56    1
    45   109   110    1
    46   115   117   ar
    47   115   112   ar
    48    36    38   ar
    49    43    42    2
    50    52    51    1
    51    52    53    1
    52   117   118   ar
    53    77    76    2
    54    23    25   ar
    55    35    37   ar
    56    58    56   am
    57    40    41    1
    58    42    51   am
    59    42    41    1
    60    24    26   ar
    61   112   110   ar
    62   112   114   ar
    63   110   111   ar
    64    56    57    2
    65    41    44    1
    66    95    96    2
    67    95    94    1
    68    53    54    2
    69    38    39   ar
    70    76    75    1
    71   118   116   ar
    72    25    27   ar
    73    93    94    1
    74    37    39   ar
    75    26    27   ar
    76   114   116   ar
    77   114   113   ar
    78   111   113   ar
    79    74    75    1
    80    94    97    1
    81    27    28    1
    82    75    78    1
    83    44    45    1
    84    78    79    1
    85    45    46    1
    86    59    60    1
    87    97    98    1
    88    65    63    1
    89    79    80    1
    90    63    60    1
    91    63    64    1
    92    73    71   am
    93    60    61    1
    94    98    99   ar
    95    98   100   ar
    96    46    47    1
    97    99   101   ar
    98    66    61   am
    99    66    67    1
   100    70    71    1
   101    70    67    1
   102    47    48    2
   103    49    48    1
   104    71    72    2
   105    80    81   ar
   106    80    82   ar
   107   100   102   ar
   108    61    62    2
   109    48    50    1
   110    67    68    1
   111    68    69    2
   112   101   103   ar
   113   102   103   ar
   114   103   104    1
