@<TRIPOS>MOLECULE
tmp/2g5bD02.pdb
 98 92 0 0 0
SMALL
GASTEIGER

@<TRIPOS>ATOM
      1  N        113.4630  110.8090   33.9680 N.3    27  PHE27      -0.1227
      2  CA       113.2430  110.4450   32.5730 C.3    27  PHE27       0.1736
      3  C        112.7710  109.0030   32.4600 C.2    27  PHE27       0.2596
      4  O        112.8220  108.2470   33.4270 O.2    27  PHE27      -0.2718
      5  CB       114.4990  110.6800   31.7230 C.3    27  PHE27       0.0547
      6  CG       115.5630  109.6320   31.8790 C.ar   27  PHE27      -0.0202
      7  CD1      116.2450  109.4770   33.0770 C.ar   27  PHE27      -0.0042
      8  CD2      115.9150  108.8210   30.8040 C.ar   27  PHE27      -0.0042
      9  CE1      117.2670  108.5280   33.2080 C.ar   27  PHE27      -0.0003
     10  CE2      116.9380  107.8670   30.9240 C.ar   27  PHE27      -0.0003
     11  CZ       117.6090  107.7270   32.1310 C.ar   27  PHE27      -0.0000
     12  N        112.2910  108.6320   31.2800 N.am   28  THR28      -0.1953
     13  CA       111.7870  107.2890   31.0520 C.3    28  THR28       0.1897
     14  C        112.9490  106.3760   30.7160 C.2    28  THR28       0.2313
     15  O        113.4490  106.3730   29.5950 O.2    28  THR28      -0.2863
     16  CB       110.7650  107.2700   29.8920 C.3    28  THR28       0.1794
     17  OG1      109.7710  108.2770   30.1160 O.3    28  THR28      -0.2208
     18  CG2      110.0710  105.9130   29.8130 C.3    28  THR28       0.0378
     19  N        112.8250  103.8790   27.5320 N.3    31  ASP31      -0.1225
     20  CA       112.9140  104.3220   26.1340 C.3    31  ASP31       0.1805
     21  C        114.3680  104.4120   25.6690 C.2    31  ASP31       0.2597
     22  O        114.6420  104.4940   24.4720 O.2    31  ASP31      -0.2718
     23  CB       112.2790  105.7060   25.9370 C.3    31  ASP31       0.1424
     24  CG       110.7620  105.6740   25.9720 C.2    31  ASP31       0.3668
     25  OD1      110.1720  104.5860   25.8120 O.co2  31  ASP31      -0.2456
     26  OD2      110.1530  106.7510   26.1430 O.co2  31  ASP31      -0.2456
     27  N        115.2950  104.3600   26.6210 N.am   32  ASN32      -0.1974
     28  CA       116.7120  104.5350   26.3220 C.3    32  ASN32       0.1688
     29  C        117.6750  103.3720   26.3140 C.2    32  ASN32       0.2292
     30  O        117.4470  102.3350   26.9410 O.2    32  ASN32      -0.2864
     31  CB       117.2850  105.5730   27.2900 C.3    32  ASN32       0.1181
     32  CG       116.7480  106.9430   27.0420 C.2    32  ASN32       0.2629
     33  OD1      117.2370  107.6550   26.1720 O.2    32  ASN32      -0.2716
     34  ND2      115.7200  107.3220   27.7860 N.am   32  ASN32      -0.0877
     35  N        123.3780  108.1710   29.7650 N.3   100  ARG100     -0.1245
     36  CA       122.2350  107.9070   28.9100 C.3   100  ARG100      0.1563
     37  C        122.7740  108.0000   27.4920 C.2   100  ARG100      0.2260
     38  O        123.4530  108.9610   27.1450 O.2   100  ARG100     -0.2867
     39  CB       121.1320  108.9350   29.1110 C.3   100  ARG100      0.0307
     40  CG       119.9540  108.7150   28.1870 C.3   100  ARG100      0.0489
     41  CD       118.7970  109.6410   28.5120 C.3   100  ARG100      0.2205
     42  NE       119.0690  111.0520   28.2350 N.pl3 100  ARG100     -0.0865
     43  CZ       118.1790  112.0270   28.4280 C.cat 100  ARG100      0.5346
     44  NH1      116.9680  111.7400   28.8920 N.pl3 100  ARG100      0.1354
     45  NH2      118.4960  113.2870   28.1740 N.pl3 100  ARG100      0.1354
     46  N        121.5040  108.5870   24.3260 N.3   102  ASN102     -0.1240
     47  CA       120.3630  109.1060   23.5920 C.3   102  ASN102      0.1653
     48  C        120.3970  108.6620   22.1340 C.2   102  ASN102      0.2266
     49  O        121.3450  108.9540   21.4140 O.2   102  ASN102     -0.2867
     50  CB       120.3610  110.6370   23.6810 C.3   102  ASN102      0.1155
     51  CG       119.0340  111.2500   23.2760 C.2   102  ASN102      0.2627
     52  OD1      118.5300  111.0000   22.1820 O.2   102  ASN102     -0.2716
     53  ND2      118.4710  112.0640   24.1620 N.am  102  ASN102     -0.0877
     54  N        117.4450  109.0830   20.1940 N.3   104  SER104     -0.1202
     55  CA       116.3770  109.8300   19.5290 C.3   104  SER104      0.2020
     56  C        116.9270  110.5220   18.2800 C.2   104  SER104      0.2618
     57  O        118.0480  111.0370   18.2990 O.2   104  SER104     -0.2717
     58  CB       115.8050  110.8780   20.4850 C.3   104  SER104      0.2103
     59  OG       115.3610  110.2740   21.6860 O.3   104  SER104     -0.2182
     60  N        116.1450  110.5260   17.1990 N.am  105  ASP105     -0.1973
     61  CA       116.5520  111.1550   15.9380 C.3   105  ASP105      0.1709
     62  C        117.9510  110.7180   15.4770 C.2   105  ASP105      0.2293
     63  O        118.6090  111.4130   14.7070 O.2   105  ASP105     -0.2864
     64  CB       116.5220  112.6810   16.0810 C.3   105  ASP105      0.1436
     65  CG       115.3050  113.1740   16.8450 C.2   105  ASP105      0.3671
     66  OD1      115.4750  113.6850   17.9790 O.co2 105  ASP105     -0.2456
     67  OD2      114.1750  113.0480   16.3170 O.co2 105  ASP105     -0.2456
     68  N        120.6690  110.6260   17.1990 N.3   107  ARG107     -0.1245
     69  CA       121.7010  111.4850   17.7670 C.3   107  ARG107      0.1563
     70  C        122.9160  110.6390   18.1700 C.2   107  ARG107      0.2260
     71  O        124.0380  110.8890   17.7170 O.2   107  ARG107     -0.2867
     72  CB       121.1420  112.2320   18.9850 C.3   107  ARG107      0.0307
     73  CG       120.0600  113.2510   18.6390 C.3   107  ARG107      0.0489
     74  CD       119.4280  113.8560   19.8800 C.3   107  ARG107      0.2205
     75  NE       119.2310  115.2990   19.7330 N.pl3 107  ARG107     -0.0865
     76  CZ       118.3110  115.8560   18.9540 C.cat 107  ARG107      0.5346
     77  NH1      117.4890  115.0930   18.2490 N.pl3 107  ARG107      0.1354
     78  NH2      118.2220  117.1750   18.8670 N.pl3 107  ARG107      0.1354
     79  N        124.6330  110.0030   21.3350 N.3   109  TYR109     -0.1241
     80  CA       125.6480  110.7020   22.1020 C.3   109  TYR109      0.1605
     81  C        125.3340  110.5820   23.5900 C.2   109  TYR109      0.2264
     82  O        124.2270  110.1800   23.9550 O.2   109  TYR109     -0.2867
     83  CB       125.7120  112.1700   21.6610 C.3   109  TYR109      0.0534
     84  CG       124.4170  112.9640   21.7440 C.ar  109  TYR109     -0.0201
     85  CD1      124.0170  113.7760   20.6880 C.ar  109  TYR109     -0.0009
     86  CD2      123.6530  112.9870   22.9070 C.ar  109  TYR109     -0.0009
     87  CE1      122.8930  114.6060   20.7890 C.ar  109  TYR109      0.0417
     88  CE2      122.5300  113.8030   23.0220 C.ar  109  TYR109      0.0417
     89  CZ       122.1590  114.6140   21.9570 C.ar  109  TYR109      0.1957
     90  OH       121.0650  115.4350   22.0680 O.3   109  TYR109     -0.2866
     91  N        124.4580  112.5060   26.5390 N.3   111  ASP111     -0.1239
     92  CA       124.0110  113.8020   27.0310 C.3   111  ASP111      0.1674
     93  C        123.8800  113.9750   28.5360 C.2   111  ASP111      0.2266
     94  O        123.9280  115.0970   29.0270 O.2   111  ASP111     -0.2867
     95  CB       122.7030  114.2000   26.3410 C.3   111  ASP111      0.1410
     96  CG       121.6080  113.1850   26.5330 C.2   111  ASP111      0.3668
     97  OD1      121.9280  111.9960   26.7450 O.co2 111  ASP111     -0.2456
     98  OD2      120.4230  113.5730   26.4570 O.co2 111  ASP111     -0.2456
@<TRIPOS>BOND
     1    63    62    2
     2    62    61    1
     3    61    64    1
     4    61    60    1
     5    64    65    1
     6    67    65   ar
     7    65    66   ar
     8    60    56   am
     9    68    69    1
    10    71    70    2
    11    69    70    1
    12    69    72    1
    13    77    76    1
    14    56    57    2
    15    56    55    1
    16    73    72    1
    17    73    74    1
    18    78    76    1
    19    76    75    2
    20    55    54    1
    21    55    58    1
    22    75    74    1
    23    58    59    1
    24    85    87   ar
    25    85    84   ar
    26    87    89   ar
    27    79    80    1
    28    49    48    2
    29    83    84    1
    30    83    80    1
    31    84    86   ar
    32    89    90    1
    33    89    88   ar
    34    80    81    1
    35    48    47    1
    36    52    51    2
    37    86    88   ar
    38    51    50    1
    39    51    53   am
    40    81    82    2
    41    47    50    1
    42    47    46    1
    43    22    21    2
    44    21    20    1
    45    21    27   am
    46    25    24   ar
    47    23    24    1
    48    23    20    1
    49    24    26   ar
    50    20    19    1
    51    33    32    2
    52    29    28    1
    53    29    30    2
    54    28    27    1
    55    28    31    1
    56    95    96    1
    57    95    92    1
    58    98    96   ar
    59    96    97   ar
    60    91    92    1
    61    92    93    1
    62    32    31    1
    63    32    34   am
    64    38    37    2
    65    37    36    1
    66    45    43    1
    67    40    41    1
    68    40    39    1
    69    42    43    2
    70    42    41    1
    71    43    44    1
    72    93    94    2
    73    36    39    1
    74    36    35    1
    75    15    14    2
    76    18    16    1
    77    16    17    1
    78    16    13    1
    79    14    13    1
    80     8    10   ar
    81     8     6   ar
    82    10    11   ar
    83    13    12    1
    84    12     3   am
    85     5     6    1
    86     5     2    1
    87     6     7   ar
    88    11     9   ar
    89     3     2    1
    90     3     4    2
    91     2     1    1
    92     7     9   ar
