@<TRIPOS>MOLECULE
tmp/2g5gA00.pdb
 94 87 0 0 0
SMALL
GASTEIGER

@<TRIPOS>ATOM
      1  N          4.2110   24.3490   64.2110 N.3   133  ILE133     -0.1231
      2  CA         4.6190   25.7370   64.4720 C.3   133  ILE133      0.1692
      3  C          5.3380   25.8560   65.8130 C.2   133  ILE133      0.2592
      4  O          6.3540   26.5520   65.9380 O.2   133  ILE133     -0.2718
      5  CB         3.4170   26.6800   64.4240 C.3   133  ILE133      0.0266
      6  CG1        2.8930   26.7890   62.9780 C.3   133  ILE133      0.0019
      7  CG2        3.7880   28.0550   64.9770 C.3   133  ILE133      0.0020
      8  CD1        1.5720   27.3990   62.8930 C.3   133  ILE133      0.0001
      9  N          4.8050   25.1640   66.8070 N.am  134  THR134     -0.1953
     10  CA         5.4440   25.0850   68.1140 C.3   134  THR134      0.1897
     11  C          6.8280   24.4510   68.0440 C.2   134  THR134      0.2313
     12  O          7.7730   24.9450   68.6800 O.2   134  THR134     -0.2863
     13  CB         4.5420   24.3790   69.1280 C.3   134  THR134      0.1794
     14  OG1        3.2800   25.0660   69.1740 O.3   134  THR134     -0.2208
     15  CG2        5.1880   24.3880   70.5110 C.3   134  THR134      0.0378
     16  N          9.3680   27.0270   66.4500 N.3   137  TYR137     -0.1227
     17  CA         9.6340   28.0140   67.4930 C.3   137  TYR137      0.1736
     18  C         10.6660   27.5120   68.5150 C.2   137  TYR137      0.2595
     19  O         11.6090   28.2270   68.8600 O.2   137  TYR137     -0.2718
     20  CB         8.3220   28.3360   68.1960 C.3   137  TYR137      0.0548
     21  CG         8.3490   29.5100   69.1540 C.ar  137  TYR137     -0.0200
     22  CD1        8.0740   30.7990   68.7110 C.ar  137  TYR137     -0.0009
     23  CD2        8.6050   29.3200   70.5070 C.ar  137  TYR137     -0.0009
     24  CE1        8.0710   31.8790   69.5890 C.ar  137  TYR137      0.0417
     25  CE2        8.6160   30.3920   71.3990 C.ar  137  TYR137      0.0417
     26  CZ         8.3370   31.6710   70.9340 C.ar  137  TYR137      0.1957
     27  OH         8.3300   32.7390   71.8130 O.3   137  TYR137     -0.2866
     28  N         10.4960   26.2700   68.9650 N.am  138  ASN138     -0.1974
     29  CA        11.4100   25.6620   69.9240 C.3   138  ASN138      0.1688
     30  C         12.7670   25.2740   69.3150 C.2   138  ASN138      0.2292
     31  O         13.6910   24.8780   70.0270 O.2   138  ASN138     -0.2864
     32  CB        10.7180   24.4980   70.6480 C.3   138  ASN138      0.1181
     33  CG         9.5430   24.9660   71.5150 C.2   138  ASN138      0.2629
     34  OD1        9.5290   26.0950   72.0120 O.2   138  ASN138     -0.2716
     35  ND2        8.5460   24.1060   71.6820 N.am  138  ASN138     -0.0877
     36  N          3.6350   43.7790   65.4110 N.3   165  HIS165     -0.1241
     37  CA         3.4530   43.4200   66.8040 C.3   165  HIS165      0.1621
     38  C          4.0020   44.4890   67.7500 C.2   165  HIS165      0.2264
     39  O          3.8800   44.3620   68.9690 O.2   165  HIS165     -0.2867
     40  CB         4.0660   42.0390   67.0830 C.3   165  HIS165      0.0745
     41  CG         3.3770   40.9150   66.3630 C.ar  165  HIS165      0.0817
     42  ND1        3.9930   40.1690   65.3800 N.ar  165  HIS165     -0.2268
     43  CD2        2.1220   40.4210   66.4750 C.ar  165  HIS165      0.1154
     44  CE1        3.1520   39.2570   64.9270 C.ar  165  HIS165      0.1986
     45  NE2        2.0060   39.3940   65.5690 N.ar  165  HIS165     -0.2212
     46  N          7.1550   45.2870   68.3060 N.3   167  LEU167     -0.1245
     47  CA         8.2110   44.6360   69.0790 C.3   167  LEU167      0.1561
     48  C          9.5520   45.2620   68.7450 C.2   167  LEU167      0.2260
     49  O         10.0980   45.0240   67.6580 O.2   167  LEU167     -0.2867
     50  CB         8.2670   43.1310   68.7680 C.3   167  LEU167      0.0270
     51  CG         7.5250   42.0360   69.5450 C.3   167  LEU167      0.0019
     52  CD1        6.2720   42.5020   70.2750 C.3   167  LEU167      0.0001
     53  CD2        7.1930   40.9210   68.5630 C.3   167  LEU167      0.0001
     54  N         13.7090   42.6260   71.4260 N.3   172  ASN172     -0.1240
     55  CA        12.9460   41.4450   71.0100 C.3   172  ASN172      0.1653
     56  C         13.5630   40.6700   69.8440 C.2   172  ASN172      0.2266
     57  O         12.8520   40.0070   69.0810 O.2   172  ASN172     -0.2867
     58  CB        11.5120   41.8610   70.6640 C.3   172  ASN172      0.1155
     59  CG        10.7280   42.3400   71.8760 C.2   172  ASN172      0.2627
     60  OD1       10.2310   41.5370   72.6710 O.2   172  ASN172     -0.2716
     61  ND2       10.6020   43.6540   72.0130 N.am  172  ASN172     -0.0877
     62  N         13.0770   36.6520   69.6780 N.3   175  LEU175     -0.1245
     63  CA        11.6790   36.4170   69.3590 C.3   175  LEU175      0.1561
     64  C         11.3620   36.6840   67.8750 C.2   175  LEU175      0.2260
     65  O         10.6790   35.8800   67.2310 O.2   175  LEU175     -0.2867
     66  CB        10.7610   37.2720   70.2450 C.3   175  LEU175      0.0270
     67  CG         9.2760   37.2130   69.8660 C.3   175  LEU175      0.0019
     68  CD1        8.7130   35.8100   70.0690 C.3   175  LEU175      0.0001
     69  CD2        8.4670   38.2430   70.6260 C.3   175  LEU175      0.0001
     70  N          9.8730   34.2470   64.8570 N.3   179  LEU179     -0.1245
     71  CA         8.6680   34.5620   64.1220 C.3   179  LEU179      0.1561
     72  C          8.9400   34.6420   62.6060 C.2   179  LEU179      0.2260
     73  O          8.1070   34.2120   61.8120 O.2   179  LEU179     -0.2867
     74  CB         8.0280   35.8540   64.6400 C.3   179  LEU179      0.0270
     75  CG         7.5410   35.8790   66.0990 C.3   179  LEU179      0.0019
     76  CD1        6.7170   37.1510   66.3820 C.3   179  LEU179      0.0001
     77  CD2        6.7460   34.6330   66.4840 C.3   179  LEU179      0.0001
     78  N          9.2440   31.0710   61.3780 N.3   182  ILE182     -0.1245
     79  CA         7.8910   30.5020   61.3160 C.3   182  ILE182      0.1561
     80  C          7.1250   30.9490   60.0730 C.2   182  ILE182      0.2260
     81  O          6.4290   30.1260   59.4500 O.2   182  ILE182     -0.2867
     82  CB         7.0570   30.8130   62.5890 C.3   182  ILE182      0.0252
     83  CG1        7.5520   29.9560   63.7640 C.3   182  ILE182      0.0019
     84  CG2        5.5620   30.5130   62.3800 C.3   182  ILE182      0.0019
     85  CD1        7.1950   30.5600   65.0980 C.3   182  ILE182      0.0001
     86  N          5.8580   28.5350   57.0490 N.3   186  LYS186     -0.1245
     87  CA         4.4540   28.5730   56.6200 C.3   186  LYS186      0.1561
     88  C          4.4120   28.7480   55.1080 C.2   186  LYS186      0.2260
     89  O          3.6910   28.0400   54.4120 O.2   186  LYS186     -0.2867
     90  CB         3.6810   29.7380   57.2590 C.3   186  LYS186      0.0271
     91  CG         3.3380   29.5550   58.7580 C.3   186  LYS186      0.0035
     92  CD         2.7390   30.8170   59.3570 C.3   186  LYS186      0.0206
     93  CE         2.0680   30.5060   60.7160 C.3   186  LYS186      0.1093
     94  NZ         1.6200   31.7790   61.3300 N.3   186  LYS186     -0.1314
@<TRIPOS>BOND
     1    89    88    2
     2    88    87    1
     3    87    86    1
     4    87    90    1
     5    90    91    1
     6    91    92    1
     7    92    93    1
     8    81    80    2
     9    80    79    1
    10    93    94    1
    11    79    78    1
    12    79    82    1
    13    73    72    2
    14    84    82    1
    15    82    83    1
    16    72    71    1
    17     8     6    1
    18     6     5    1
    19    83    85    1
    20    71    74    1
    21    71    70    1
    22     1     2    1
    23     5     2    1
    24     5     7    1
    25     2     3    1
    26    74    75    1
    27    44    42   ar
    28    44    45   ar
    29    42    41   ar
    30    36    37    1
    31    45    43   ar
    32     3     4    2
    33     3     9   am
    34    75    76    1
    35    75    77    1
    36    41    43   ar
    37    41    40    1
    38    16    17    1
    39    37    40    1
    40    37    38    1
    41     9    10    1
    42    65    64    2
    43    17    20    1
    44    17    18    1
    45    49    48    2
    46    38    39    2
    47    64    63    1
    48    11    10    1
    49    11    12    2
    50    10    13    1
    51    20    21    1
    52    46    47    1
    53    18    19    2
    54    18    28   am
    55    53    51    1
    56    22    21   ar
    57    22    24   ar
    58    48    47    1
    59    50    47    1
    60    50    51    1
    61    28    29    1
    62    57    56    2
    63    13    14    1
    64    13    15    1
    65    21    23   ar
    66    30    29    1
    67    30    31    2
    68    63    62    1
    69    63    66    1
    70    51    52    1
    71    24    26   ar
    72    56    55    1
    73    67    68    1
    74    67    66    1
    75    67    69    1
    76    29    32    1
    77    23    25   ar
    78    32    33    1
    79    58    55    1
    80    58    59    1
    81    26    25   ar
    82    26    27    1
    83    55    54    1
    84    33    35   am
    85    33    34    2
    86    59    61   am
    87    59    60    2
