@<TRIPOS>MOLECULE
tmp/2g5iB00.pdb
 137 129 0 0 0
SMALL
GASTEIGER

@<TRIPOS>ATOM
      1  N          2.9860    6.7540  -34.5840 N.3     5  VAL5       -0.1231
      2  CA         3.6960    7.2240  -33.4030 C.3     5  VAL5        0.1692
      3  C          4.2290    6.0480  -32.6050 C.2     5  VAL5        0.2592
      4  O          3.4530    5.2120  -32.1450 O.2     5  VAL5       -0.2718
      5  CB         2.7750    8.0190  -32.4590 C.3     5  VAL5        0.0266
      6  CG1        3.6130    8.8020  -31.4650 C.3     5  VAL5        0.0020
      7  CG2        1.8580    8.9290  -33.2540 C.3     5  VAL5        0.0020
      8  N          5.5470    5.9660  -32.4490 N.am    6  ILE6       -0.1966
      9  CA         6.1410    4.8850  -31.6680 C.3     6  ILE6        0.1727
     10  C          7.4840    5.3000  -31.0680 C.2     6  ILE6        0.2617
     11  O          8.2700    5.9970  -31.7090 O.2     6  ILE6       -0.2715
     12  CB         6.3450    3.5900  -32.5110 C.3     6  ILE6        0.0290
     13  CG1        7.6190    3.6650  -33.3440 C.3     6  ILE6        0.0022
     14  CG2        5.1660    3.3770  -33.4380 C.3     6  ILE6        0.0023
     15  CD1        7.9560    2.3650  -34.0440 C.3     6  ILE6        0.0001
     16  N          7.7340    4.8700  -29.8330 N.am    7  GLY7       -0.1940
     17  CA         8.9810    5.1930  -29.1610 C.3     7  GLY7        0.2014
     18  C          9.6500    3.9310  -28.6580 C.2     7  GLY7        0.2639
     19  O          8.9900    2.9000  -28.5160 O.2     7  GLY7       -0.2714
     20  N         10.9530    3.9970  -28.3910 N.am    8  LEU8       -0.1963
     21  CA        11.6870    2.8290  -27.9090 C.3     8  LEU8        0.1728
     22  C         12.1660    2.9590  -26.4530 C.2     8  LEU8        0.2616
     23  O         12.5030    4.0460  -25.9860 O.2     8  LEU8       -0.2715
     24  CB        12.8830    2.5550  -28.8240 C.3     8  LEU8        0.0311
     25  CG        12.6160    2.5650  -30.3290 C.3     8  LEU8        0.0022
     26  CD1       13.9170    2.3260  -31.0830 C.3     8  LEU8        0.0001
     27  CD2       11.5860    1.5070  -30.6830 C.3     8  LEU8        0.0001
     28  N         12.2010    1.8160  -25.7680 N.am    9  GLU9       -0.1977
     29  CA        12.6020    1.6820  -24.3680 C.3     9  GLU9        0.1602
     30  C         13.8530    0.8010  -24.3380 C.2     9  GLU9        0.2287
     31  O         13.7510   -0.4210  -24.4510 O.2     9  GLU9       -0.2864
     32  CB        11.4750    0.9860  -23.6150 C.3     9  GLU9        0.0415
     33  CG        11.2420    1.4250  -22.2000 C.3     9  GLU9        0.1163
     34  CD        10.0880    0.6650  -21.5870 C.2     9  GLU9        0.3649
     35  OE1        9.0510    0.5370  -22.2720 O.co2   9  GLU9       -0.2457
     36  OE2       10.2070    0.1950  -20.4340 O.co2   9  GLU9       -0.2457
     37  N         10.2930    0.6030   -6.5740 N.3    78  LYS78      -0.1245
     38  CA         9.2770    0.1390   -7.5100 C.3    78  LYS78       0.1561
     39  C          8.7490   -1.1800   -6.9320 C.2    78  LYS78       0.2260
     40  O          9.3370   -2.2340   -7.1610 O.2    78  LYS78      -0.2867
     41  CB         9.9430   -0.1110   -8.8650 C.3    78  LYS78       0.0271
     42  CG         9.0730    0.0130  -10.1070 C.3    78  LYS78       0.0035
     43  CD         9.8860   -0.4700  -11.3100 C.3    78  LYS78       0.0206
     44  CE         9.4410    0.1270  -12.6400 C.3    78  LYS78       0.1093
     45  NZ         8.1220   -0.3540  -13.1270 N.3    78  LYS78      -0.1314
     46  N         13.0920   11.3830  -23.4910 N.3   118  THR118     -0.1218
     47  CA        12.4970   11.9540  -22.2890 C.3   118  THR118      0.1862
     48  C         13.2810   11.7780  -20.9940 C.2   118  THR118      0.2287
     49  O         13.4010   12.7220  -20.2160 O.2   118  THR118     -0.2866
     50  CB        11.0330   11.4480  -22.0720 C.3   118  THR118      0.1770
     51  OG1       10.9090   10.8650  -20.7690 O.3   118  THR118     -0.2211
     52  CG2       10.6390   10.4350  -23.1330 C.3   118  THR118      0.0375
     53  N         17.9290    3.0750  -17.8590 N.3   149  GLU149     -0.1245
     54  CA        16.8100    3.0190  -18.7850 C.3   149  GLU149      0.1567
     55  C         16.8710    4.2630  -19.6540 C.2   149  GLU149      0.2260
     56  O         17.2650    5.3300  -19.1870 O.2   149  GLU149     -0.2867
     57  CB        15.4900    2.9870  -18.0120 C.3   149  GLU149      0.0388
     58  CG        14.5270    1.9020  -18.4530 C.3   149  GLU149      0.1160
     59  CD        13.2280    1.9290  -17.6760 C.2   149  GLU149      0.3649
     60  OE1       12.4670    2.9050  -17.8080 O.co2 149  GLU149     -0.2457
     61  OE2       12.9620    0.9760  -16.9240 O.co2 149  GLU149     -0.2457
     62  N         14.2650    6.1050  -22.0190 N.3   151  VAL151     -0.1231
     63  CA        12.9300    6.2980  -22.5720 C.3   151  VAL151      0.1692
     64  C         12.8980    7.3690  -23.6550 C.2   151  VAL151      0.2593
     65  O         13.0940    8.5490  -23.3730 O.2   151  VAL151     -0.2718
     66  CB        11.9510    6.6980  -21.4520 C.3   151  VAL151      0.0266
     67  CG1       10.5620    6.9190  -22.0190 C.3   151  VAL151      0.0020
     68  CG2       11.9350    5.6210  -20.3790 C.3   151  VAL151      0.0020
     69  N         12.6370    6.9560  -24.8900 N.am  152  SER152     -0.1938
     70  CA        12.5860    7.8920  -26.0050 C.3   152  SER152      0.2055
     71  C         11.2250    8.5510  -26.1050 C.2   152  SER152      0.2643
     72  O         10.1930    7.8920  -25.9760 O.2   152  SER152     -0.2714
     73  CB        12.8550    7.1770  -27.3270 C.3   152  SER152      0.2130
     74  OG        11.6530    6.6290  -27.8430 O.3   152  SER152     -0.2179
     75  N         11.2290    9.8550  -26.3470 N.am  153  GLU153     -0.1963
     76  CA         9.9910   10.5960  -26.5120 C.3   153  GLU153      0.1718
     77  C          9.3010    9.8650  -27.6620 C.2   153  GLU153      0.2458
     78  O          9.9500    9.1360  -28.4110 O.2   153  GLU153     -0.2730
     79  CB        10.3090   12.0340  -26.9190 C.3   153  GLU153      0.0428
     80  CG         9.2020   13.0370  -26.6750 C.3   153  GLU153      0.1163
     81  CD         8.8900   13.1960  -25.2050 C.2   153  GLU153      0.3649
     82  OE1        9.8440   13.2350  -24.4000 O.co2 153  GLU153     -0.2457
     83  OE2        7.6940   13.2920  -24.8550 O.co2 153  GLU153     -0.2457
     84  N          7.9800   10.0290  -27.8120 N.am  154  PRO154     -0.2727
     85  CA         7.3030    9.3350  -28.9130 C.3   154  PRO154      0.1402
     86  C          7.4990   10.0670  -30.2390 C.2   154  PRO154      0.2269
     87  O          6.5800   10.1560  -31.0530 O.2   154  PRO154     -0.2865
     88  CB         5.8490    9.3330  -28.4640 C.3   154  PRO154      0.0296
     89  CG         5.7350   10.6530  -27.7640 C.3   154  PRO154      0.0237
     90  CD         7.0040   10.6900  -26.9290 C.3   154  PRO154      0.0939
     91  N          6.9230    0.5040  -28.4790 N.3   193  ASN193     -0.1240
     92  CA         5.5510    0.9420  -28.2810 C.3   193  ASN193      0.1653
     93  C          5.0610    1.5580  -29.5720 C.2   193  ASN193      0.2266
     94  O          5.5880    2.5720  -30.0210 O.2   193  ASN193     -0.2867
     95  CB         5.4750    1.9760  -27.1610 C.3   193  ASN193      0.1155
     96  CG         5.8480    1.3980  -25.8170 C.2   193  ASN193      0.2627
     97  OD1        5.0460    0.7210  -25.1710 O.2   193  ASN193     -0.2716
     98  ND2        7.0790    1.6460  -25.3920 N.am  193  ASN193     -0.0877
     99  N          1.4840    2.6660  -32.0110 N.3   195  SER195     -0.1217
    100  CA         0.0670    3.0420  -31.9790 C.3   195  SER195      0.1889
    101  C         -0.2210    4.0030  -33.1350 C.2   195  SER195      0.2288
    102  O          0.4090    5.0560  -33.2480 O.2   195  SER195     -0.2866
    103  CB        -0.2830    3.7270  -30.6570 C.3   195  SER195      0.2089
    104  OG        -0.1650    5.1340  -30.7650 O.3   195  SER195     -0.2183
    105  N         -2.9140   10.5950  -29.1080 N.3   204  PHE204     -0.1227
    106  CA        -2.1850    9.4910  -29.7130 C.3   204  PHE204      0.1736
    107  C         -3.0330    8.2570  -29.9040 C.2   204  PHE204      0.2596
    108  O         -4.1220    8.1300  -29.3410 O.2   204  PHE204     -0.2718
    109  CB        -0.9650    9.1120  -28.8710 C.3   204  PHE204      0.0547
    110  CG         0.2220    9.9900  -29.1040 C.ar  204  PHE204     -0.0202
    111  CD1        0.5420   10.4070  -30.3910 C.ar  204  PHE204     -0.0042
    112  CD2        1.0160   10.4100  -28.0450 C.ar  204  PHE204     -0.0042
    113  CE1        1.6330   11.2330  -30.6240 C.ar  204  PHE204     -0.0003
    114  CE2        2.1140   11.2380  -28.2670 C.ar  204  PHE204     -0.0003
    115  CZ         2.4220   11.6500  -29.5590 C.ar  204  PHE204     -0.0000
    116  N         -2.5170    7.3410  -30.7110 N.am  205  GLY205     -0.1957
    117  CA        -3.2270    6.1070  -30.9380 C.3   205  GLY205      0.1869
    118  C         -3.1950    5.3550  -29.6290 C.2   205  GLY205      0.2309
    119  O         -2.9930    5.9410  -28.5650 O.2   205  GLY205     -0.2863
    120  N         -1.1830    2.5210  -27.7950 N.3   207  LYS207     -0.1245
    121  CA         0.0440    1.7380  -27.8190 C.3   207  LYS207      0.1561
    122  C         -0.0800    0.3050  -27.3360 C.2   207  LYS207      0.2260
    123  O         -1.0080   -0.0490  -26.6110 O.2   207  LYS207     -0.2867
    124  CB         1.1380    2.4460  -27.0130 C.3   207  LYS207      0.0271
    125  CG         0.6670    3.0550  -25.6980 C.3   207  LYS207      0.0035
    126  CD         1.7780    3.0470  -24.6510 C.3   207  LYS207      0.0206
    127  CE         2.1230    1.6190  -24.2620 C.3   207  LYS207      0.1093
    128  NZ         3.1010    1.4900  -23.1470 N.3   207  LYS207     -0.1314
    129  N          2.8820   -2.3730  -26.0170 N.3   209  GLU209     -0.1245
    130  CA         4.2590   -2.7730  -25.7450 C.3   209  GLU209      0.1567
    131  C          4.5970   -3.9960  -26.6050 C.2   209  GLU209      0.2260
    132  O          3.7760   -4.9040  -26.7540 O.2   209  GLU209     -0.2867
    133  CB         4.4210   -3.0900  -24.2480 C.3   209  GLU209      0.0388
    134  CG         5.7550   -2.6550  -23.6540 C.3   209  GLU209      0.1160
    135  CD         5.8170   -2.7370  -22.1180 C.2   209  GLU209      0.3649
    136  OE1        5.0060   -2.1090  -21.4270 O.co2 209  GLU209     -0.2457
    137  OE2        6.6880   -3.4120  -21.5570 O.co2 209  GLU209     -0.2457
@<TRIPOS>BOND
     1     1     2    1
     2    15    13    1
     3    14    12    1
     4     2     3    1
     5     2     5    1
     6    13    12    1
     7     7     5    1
     8   102   101    2
     9   101   100    1
    10     3     8   am
    11     3     4    2
    12    12     9    1
    13     5     6    1
    14     8     9    1
    15    99   100    1
    16   100   103    1
    17    11    10    2
    18     9    10    1
    19    26    25    1
    20    10    16   am
    21    87    86    2
    22   117   116    1
    23   117   118    1
    24   104   103    1
    25   116   107   am
    26    27    25    1
    27   113   111   ar
    28   113   115   ar
    29   111   110   ar
    30    25    24    1
    31    86    85    1
    32    94    93    2
    33   107   106    1
    34   107   108    2
    35    16    17    1
    36   106   105    1
    37   106   109    1
    38   118   119    2
    39    93    92    1
    40   115   114   ar
    41    17    18    1
    42   110   109    1
    43   110   112   ar
    44    85    88    1
    45    85    84    1
    46    24    21    1
    47    18    19    2
    48    18    20   am
    49    91    92    1
    50    88    89    1
    51    78    77    2
    52    20    21    1
    53    92    95    1
    54   114   112   ar
    55    21    22    1
    56    74    73    1
    57   121   120    1
    58   121   122    1
    59   121   124    1
    60    84    77   am
    61    84    90    1
    62    89    90    1
    63    77    76    1
    64   122   123    2
    65    73    70    1
    66    95    96    1
    67   124   125    1
    68    79    80    1
    69    79    76    1
    70   132   131    2
    71    80    81    1
    72   131   130    1
    73    76    75    1
    74    22    23    2
    75    22    28   am
    76    75    71   am
    77    71    70    1
    78    71    72    2
    79   129   130    1
    80    70    69    1
    81    96    98   am
    82    96    97    2
    83    28    29    1
    84   130   133    1
    85   125   126    1
    86    81    83   ar
    87    81    82   ar
    88    69    64   am
    89   126   127    1
    90    31    30    2
    91    29    30    1
    92    29    32    1
    93   127   128    1
    94   133   134    1
    95    64    65    2
    96    64    63    1
    97   134   135    1
    98    32    33    1
    99    46    47    1
   100    52    50    1
   101    63    62    1
   102    63    66    1
   103    47    50    1
   104    47    48    1
   105    35    34   ar
   106    33    34    1
   107   135   137   ar
   108   135   136   ar
   109    50    51    1
   110    67    66    1
   111    34    36   ar
   112    66    68    1
   113    48    49    2
   114    55    56    2
   115    55    54    1
   116    54    57    1
   117    54    53    1
   118    58    57    1
   119    58    59    1
   120    60    59   ar
   121    59    61   ar
   122    45    44    1
   123    44    43    1
   124    43    42    1
   125    42    41    1
   126    41    38    1
   127    38    39    1
   128    38    37    1
   129    40    39    2
