@<TRIPOS>MOLECULE
tmp/2g5lA00.pdb
 172 165 0 0 0
SMALL
GASTEIGER

@<TRIPOS>ATOM
      1  N         69.9340    9.7850   25.8630 N.3     9  ASN9       -0.1240
      2  CA        71.4300    9.7380   25.8460 C.3     9  ASN9        0.1653
      3  C         72.0390    8.6270   26.7400 C.2     9  ASN9        0.2266
      4  O         71.3040    7.8790   27.3880 O.2     9  ASN9       -0.2867
      5  CB        72.0690   11.1230   26.1100 C.3     9  ASN9        0.1155
      6  CG        71.9140   11.6080   27.5490 C.2     9  ASN9        0.2627
      7  OD1       71.4890   10.8620   28.4340 O.2     9  ASN9       -0.2716
      8  ND2       72.2820   12.8750   27.7860 N.am    9  ASN9       -0.0877
      9  N         73.9320    9.2000   29.1410 N.3    11  LEU11      -0.1231
     10  CA        73.7090    9.6720   30.4660 C.3    11  LEU11       0.1693
     11  C         72.2630    9.2700   30.7180 C.2    11  LEU11       0.2593
     12  O         71.8210    9.2500   31.8470 O.2    11  LEU11      -0.2718
     13  CB        73.9340   11.1790   30.5490 C.3    11  LEU11       0.0284
     14  CG        75.3430   11.6240   30.1340 C.3    11  LEU11       0.0019
     15  CD1       75.3970   13.1170   29.9930 C.3    11  LEU11       0.0001
     16  CD2       76.4140   11.1480   31.1130 C.3    11  LEU11       0.0001
     17  N         71.5350    8.9180   29.6570 N.am   12  GLY12      -0.1942
     18  CA        70.1930    8.3600   29.8300 C.3    12  GLY12       0.2014
     19  C         69.0720    9.3650   30.0370 C.2    12  GLY12       0.2639
     20  O         67.9330    8.9750   30.3270 O.2    12  GLY12      -0.2714
     21  N         69.3780   10.6450   29.8900 N.am   13  SER13      -0.1949
     22  CA        68.3270   11.6350   29.9010 C.3    13  SER13       0.1924
     23  C         67.2660   11.0260   29.0710 C.2    13  SER13       0.2314
     24  O         67.6060   10.1550   28.2630 O.2    13  SER13      -0.2863
     25  CB        68.7910   12.8820   29.1790 C.3    13  SER13       0.2116
     26  OG        69.8070   13.5570   29.8760 O.3    13  SER13      -0.2180
     27  N         63.8510   12.3320   26.6180 N.3    15  PHE15      -0.1241
     28  CA        63.0560   13.3880   26.0120 C.3    15  PHE15       0.1605
     29  C         61.9950   12.7450   25.1680 C.2    15  PHE15       0.2264
     30  O         62.2480   11.8460   24.3830 O.2    15  PHE15      -0.2867
     31  CB        63.9050   14.3010   25.1430 C.3    15  PHE15       0.0534
     32  CG        64.9470   15.0470   25.9130 C.ar   15  PHE15      -0.0203
     33  CD1       64.7020   16.3350   26.3840 C.ar   15  PHE15      -0.0042
     34  CD2       66.1620   14.4490   26.2010 C.ar   15  PHE15      -0.0042
     35  CE1       65.6760   17.0160   27.1010 C.ar   15  PHE15      -0.0003
     36  CE2       67.1420   15.1270   26.9240 C.ar   15  PHE15      -0.0003
     37  CZ        66.8930   16.4100   27.3730 C.ar   15  PHE15      -0.0000
     38  N         61.1580   16.9460   28.8250 N.3    29  TYR29      -0.1241
     39  CA        62.1540   16.1380   29.5060 C.3    29  TYR29       0.1605
     40  C         61.4360   15.3360   30.5960 C.2    29  TYR29       0.2264
     41  O         60.5750   15.8780   31.2950 O.2    29  TYR29      -0.2867
     42  CB        63.2250   17.0120   30.1620 C.3    29  TYR29       0.0534
     43  CG        64.0940   16.1950   31.0780 C.ar   29  TYR29      -0.0201
     44  CD1       65.1630   15.4650   30.5740 C.ar   29  TYR29      -0.0009
     45  CD2       63.8060   16.0920   32.4470 C.ar   29  TYR29      -0.0009
     46  CE1       65.9410   14.6680   31.4080 C.ar   29  TYR29       0.0417
     47  CE2       64.5840   15.3010   33.2850 C.ar   29  TYR29       0.0417
     48  CZ        65.6430   14.6020   32.7580 C.ar   29  TYR29       0.1957
     49  OH        66.4160   13.8280   33.5940 O.3    29  TYR29      -0.2866
     50  N         62.2240   12.5590   33.9160 N.3    31  SER31      -0.1202
     51  CA        63.2340   11.9070   34.7580 C.3    31  SER31       0.2020
     52  C         63.1880   10.3940   34.5860 C.2    31  SER31       0.2619
     53  O         62.2220    9.8600   34.0420 O.2    31  SER31      -0.2717
     54  CB        63.0230   12.2340   36.2320 C.3    31  SER31       0.2103
     55  OG        61.8590   11.5830   36.6930 O.3    31  SER31      -0.2182
     56  N         64.2180    9.7090   35.0910 N.am   32  ALA32      -0.1965
     57  CA        64.2470    8.2420   35.1050 C.3    32  ALA32       0.1728
     58  C         62.9720    7.6870   35.7400 C.2    32  ALA32       0.2616
     59  O         62.4630    6.6360   35.3360 O.2    32  ALA32      -0.2715
     60  CB        65.4750    7.7370   35.8490 C.3    32  ALA32       0.0334
     61  N         62.4580    8.4130   36.7310 N.am   33  VAL33      -0.1977
     62  CA        61.2310    8.0340   37.4270 C.3    33  VAL33       0.1596
     63  C         59.9840    8.4180   36.6230 C.2    33  VAL33       0.2287
     64  O         59.0000    7.6790   36.6060 O.2    33  VAL33      -0.2864
     65  CB        61.1670    8.6640   38.8380 C.3    33  VAL33       0.0276
     66  CG1       60.0550    8.0290   39.6450 C.3    33  VAL33       0.0022
     67  CG2       62.5000    8.4990   39.5600 C.3    33  VAL33       0.0022
     68  N         59.8440   16.2430   38.1860 N.3    38  SER38      -0.1217
     69  CA        61.0750   16.3380   37.3960 C.3    38  SER38       0.1889
     70  C         60.8380   16.4430   35.8860 C.2    38  SER38       0.2288
     71  O         61.7580   16.2230   35.0940 O.2    38  SER38      -0.2866
     72  CB        61.9900   15.1500   37.6920 C.3    38  SER38       0.2089
     73  OG        62.1760   14.9600   39.0770 O.3    38  SER38      -0.2183
     74  N         59.8610   18.7100   32.5310 N.3    40  TYR40      -0.1241
     75  CA        60.0430   20.0800   32.0490 C.3    40  TYR40       0.1605
     76  C         59.6210   20.1770   30.5980 C.2    40  TYR40       0.2264
     77  O         59.8420   19.2410   29.8300 O.2    40  TYR40      -0.2867
     78  CB        61.4960   20.5300   32.2090 C.3    40  TYR40       0.0534
     79  CG        61.9510   20.5400   33.6480 C.ar   40  TYR40      -0.0201
     80  CD1       62.3590   19.3630   34.2670 C.ar   40  TYR40      -0.0009
     81  CD2       61.9460   21.7080   34.4000 C.ar   40  TYR40      -0.0009
     82  CE1       62.7580   19.3380   35.5930 C.ar   40  TYR40       0.0417
     83  CE2       62.3400   21.6910   35.7350 C.ar   40  TYR40       0.0417
     84  CZ        62.7510   20.5020   36.3180 C.ar   40  TYR40       0.1957
     85  OH        63.1370   20.4920   37.6440 O.3    40  TYR40      -0.2866
     86  N         64.6890   25.1970   32.8390 N.3    65  TRP65      -0.1241
     87  CA        64.6680   24.2730   33.9650 C.3    65  TRP65       0.1605
     88  C         63.8300   24.7800   35.1360 C.2    65  TRP65       0.2264
     89  O         64.2650   24.7660   36.2960 O.2    65  TRP65      -0.2867
     90  CB        66.0930   23.8870   34.3870 C.3    65  TRP65       0.0550
     91  CG        66.8190   23.2350   33.2420 C.ar   65  TRP65       0.0003
     92  CD1       67.8370   23.7700   32.5110 C.ar   65  TRP65       0.0946
     93  CD2       66.4940   21.9730   32.6370 C.ar   65  TRP65       0.0152
     94  NE1       68.1810   22.9030   31.4890 N.ar   65  TRP65      -0.2442
     95  CE2       67.3810   21.7920   31.5550 C.ar   65  TRP65       0.0810
     96  CE3       65.5510   20.9710   32.9180 C.ar   65  TRP65       0.0012
     97  CZ2       67.3510   20.6520   30.7480 C.ar   65  TRP65       0.0191
     98  CZ3       65.5290   19.8350   32.1270 C.ar   65  TRP65       0.0001
     99  CH2       66.4300   19.6850   31.0500 C.ar   65  TRP65       0.0015
    100  N         60.2020   23.1570   40.9410 N.3    70  ARG70      -0.1245
    101  CA        61.6330   23.4010   41.0210 C.3    70  ARG70       0.1563
    102  C         62.0450   24.4560   40.0190 C.2    70  ARG70       0.2260
    103  O         61.3850   24.6400   38.9930 O.2    70  ARG70      -0.2867
    104  CB        62.4170   22.1090   40.8010 C.3    70  ARG70       0.0307
    105  CG        62.2670   21.1590   41.9880 C.3    70  ARG70       0.0489
    106  CD        63.1450   19.9380   41.8850 C.3    70  ARG70       0.2205
    107  NE        63.0310   19.3270   40.5680 N.pl3  70  ARG70      -0.0865
    108  CZ        63.8520   18.3980   40.0930 C.cat  70  ARG70       0.5346
    109  NH1       64.8680   17.9490   40.8250 N.pl3  70  ARG70       0.1354
    110  NH2       63.6610   17.9240   38.8730 N.pl3  70  ARG70       0.1354
    111  N         65.8610   25.7810   38.4800 N.3    72  ALA72      -0.1245
    112  CA        67.3100   25.7970   38.4460 C.3    72  ALA72       0.1562
    113  C         67.8440   27.0500   37.7560 C.2    72  ALA72       0.2260
    114  O         69.0380   27.1130   37.4550 O.2    72  ALA72      -0.2867
    115  CB        67.8440   24.5340   37.7590 C.3    72  ALA72       0.0290
    116  N         67.9500   28.3720   34.7930 N.3    74  SER74      -0.1217
    117  CA        68.8320   28.0250   33.6940 C.3    74  SER74       0.1889
    118  C         67.9960   27.4600   32.5610 C.2    74  SER74       0.2288
    119  O         66.8330   27.0920   32.7500 O.2    74  SER74      -0.2866
    120  CB        69.9030   27.0230   34.1580 C.3    74  SER74       0.2089
    121  OG        69.3540   25.8900   34.8280 O.3    74  SER74      -0.2183
    122  N         68.6320   25.1210   28.6390 N.3    76  THR76      -0.1218
    123  CA        69.5300   24.4810   27.6810 C.3    76  THR76       0.1862
    124  C         68.8890   24.5140   26.3120 C.2    76  THR76       0.2287
    125  O         67.6920   24.2460   26.1720 O.2    76  THR76      -0.2866
    126  CB        69.7810   23.0260   28.0720 C.3    76  THR76       0.1770
    127  OG1       70.2690   23.0150   29.4160 O.3    76  THR76      -0.2211
    128  CG2       70.8060   22.3600   27.1440 C.3    76  THR76       0.0375
    129  N         69.5230   22.6830   22.5110 N.3    78  TRP78      -0.1241
    130  CA        70.1870   21.6710   21.7100 C.3    78  TRP78       0.1605
    131  C         70.0080   22.0240   20.2380 C.2    78  TRP78       0.2264
    132  O         68.8990   22.3070   19.8050 O.2    78  TRP78      -0.2867
    133  CB        69.5740   20.2980   21.9530 C.3    78  TRP78       0.0550
    134  CG        69.9340   19.6370   23.2550 C.ar   78  TRP78       0.0003
    135  CD1       70.8870   18.6830   23.4460 C.ar   78  TRP78       0.0946
    136  CD2       69.2990   19.8300   24.5260 C.ar   78  TRP78       0.0152
    137  NE1       70.8940   18.2680   24.7510 N.ar   78  TRP78      -0.2442
    138  CE2       69.9220   18.9470   25.4350 C.ar   78  TRP78       0.0810
    139  CE3       68.2500   20.6480   24.9840 C.ar   78  TRP78       0.0012
    140  CZ2       69.5320   18.8480   26.7720 C.ar   78  TRP78       0.0191
    141  CZ3       67.8610   20.5350   26.3070 C.ar   78  TRP78       0.0001
    142  CH2       68.5090   19.6520   27.1850 C.ar   78  TRP78       0.0015
    143  N         74.9730   21.3550   22.6290 N.3    94  TRP94      -0.1241
    144  CA        74.0870   22.0810   23.5240 C.3    94  TRP94       0.1605
    145  C         74.8080   23.2300   24.2030 C.2    94  TRP94       0.2264
    146  O         76.0390   23.2110   24.3890 O.2    94  TRP94      -0.2867
    147  CB        73.4440   21.1400   24.5580 C.3    94  TRP94       0.0550
    148  CG        74.4050   20.2950   25.3210 C.ar   94  TRP94       0.0003
    149  CD1       74.7790   19.0220   25.0090 C.ar   94  TRP94       0.0946
    150  CD2       75.1180   20.6340   26.5280 C.ar   94  TRP94       0.0152
    151  NE1       75.6810   18.5510   25.9200 N.ar   94  TRP94      -0.2442
    152  CE2       75.9060   19.5170   26.8690 C.ar   94  TRP94       0.0810
    153  CE3       75.1740   21.7780   27.3450 C.ar   94  TRP94       0.0012
    154  CZ2       76.7430   19.5070   27.9900 C.ar   94  TRP94       0.0191
    155  CZ3       76.0210   21.7670   28.4450 C.ar   94  TRP94       0.0001
    156  CH2       76.7850   20.6370   28.7620 C.ar   94  TRP94       0.0015
    157  N         74.0890   25.4710   27.7610 N.3    96  LEU96      -0.1245
    158  CA        73.3470   25.5510   29.0150 C.3    96  LEU96       0.1561
    159  C         73.6990   26.8790   29.6730 C.2    96  LEU96       0.2260
    160  O         74.8250   27.0590   30.1560 O.2    96  LEU96      -0.2867
    161  CB        73.7170   24.3600   29.9020 C.3    96  LEU96       0.0270
    162  CG        73.3880   24.4060   31.4010 C.3    96  LEU96       0.0019
    163  CD1       71.9400   24.7570   31.6640 C.3    96  LEU96       0.0001
    164  CD2       73.7450   23.0610   32.0090 C.3    96  LEU96       0.0001
    165  N         75.5440   16.0360   22.6480 N.3   114  ASP114     -0.1239
    166  CA        74.6140   14.9880   23.0640 C.3   114  ASP114      0.1674
    167  C         74.2580   14.1680   21.8470 C.2   114  ASP114      0.2266
    168  O         73.8840   14.7190   20.7960 O.2   114  ASP114     -0.2867
    169  CB        73.3430   15.5690   23.6800 C.3   114  ASP114      0.1410
    170  CG        73.2060   15.3270   25.1900 C.2   114  ASP114      0.3668
    171  OD1       73.7700   14.3430   25.7040 O.co2 114  ASP114     -0.2456
    172  OD2       72.4990   16.1320   25.8500 O.co2 114  ASP114     -0.2456
@<TRIPOS>BOND
     1   132   131    2
     2   131   130    1
     3   168   167    2
     4   130   133    1
     5   130   129    1
     6   167   166    1
     7   133   134    1
     8   143   144    1
     9   165   166    1
    10   166   169    1
    11   134   135   ar
    12   134   136   ar
    13   135   137   ar
    14   144   145    1
    15   144   147    1
    16   169   170    1
    17   145   146    2
    18    30    29    2
    19   136   139   ar
    20   136   138   ar
    21   147   148    1
    22   137   138   ar
    23   139   141   ar
    24   149   148   ar
    25   149   151   ar
    26    31    32    1
    27    31    28    1
    28    29    28    1
    29   170   171   ar
    30   170   172   ar
    31   148   150   ar
    32   138   140   ar
    33     2     1    1
    34     2     5    1
    35     2     3    1
    36    32    34   ar
    37    32    33   ar
    38   151   152   ar
    39    28    27    1
    40     5     6    1
    41   125   124    2
    42    34    36   ar
    43   141   142   ar
    44   124   123    1
    45    33    35   ar
    46   150   152   ar
    47   150   153   ar
    48     3     4    2
    49   140   142   ar
    50   152   154   ar
    51    36    37   ar
    52    35    37   ar
    53   128   126    1
    54   153   155   ar
    55     6     8   am
    56     6     7    2
    57   123   126    1
    58   123   122    1
    59   157   158    1
    60   154   156   ar
    61   126   127    1
    62    24    23    2
    63   155   156   ar
    64    38    39    1
    65   158   159    1
    66   158   161    1
    67    23    22    1
    68     9    10    1
    69    25    26    1
    70    25    22    1
    71    39    42    1
    72    39    40    1
    73    17    18    1
    74    17    11   am
    75   159   160    2
    76    18    19    1
    77    77    76    2
    78    21    22    1
    79    21    19   am
    80   161   162    1
    81    15    14    1
    82    19    20    2
    83    14    13    1
    84    14    16    1
    85    42    43    1
    86    10    13    1
    87    10    11    1
    88    44    43   ar
    89    44    46   ar
    90    40    41    2
    91    76    75    1
    92    11    12    2
    93    97    99   ar
    94    97    95   ar
    95    99    98   ar
    96    43    45   ar
    97   162   163    1
    98   162   164    1
    99    46    48   ar
   100    94    95   ar
   101    94    92   ar
   102    95    93   ar
   103    75    78    1
   104    75    74    1
   105    98    96   ar
   106    78    79    1
   107    45    47   ar
   108    92    91   ar
   109   118   119    2
   110   118   117    1
   111    93    96   ar
   112    93    91   ar
   113    48    47   ar
   114    48    49    1
   115    86    87    1
   116    91    90    1
   117    79    80   ar
   118    79    81   ar
   119   117   120    1
   120   117   116    1
   121    50    51    1
   122    87    90    1
   123    87    88    1
   124    53    52    2
   125   120   121    1
   126    80    82   ar
   127    81    83   ar
   128    52    51    1
   129    52    56   am
   130    51    54    1
   131    56    57    1
   132    71    70    2
   133    57    58    1
   134    57    60    1
   135    88    89    2
   136    59    58    2
   137    82    84   ar
   138    83    84   ar
   139    58    61   am
   140    70    69    1
   141    54    55    1
   142    84    85    1
   143    64    63    2
   144    63    62    1
   145    61    62    1
   146    69    72    1
   147    69    68    1
   148    62    65    1
   149   114   113    2
   150    72    73    1
   151   113   112    1
   152   115   112    1
   153   112   111    1
   154    65    67    1
   155    65    66    1
   156   110   108    1
   157   103   102    2
   158   102   101    1
   159   108   107    2
   160   108   109    1
   161   107   106    1
   162   104   101    1
   163   104   105    1
   164   100   101    1
   165   106   105    1
