@<TRIPOS>MOLECULE
tmp/2g5oA01.pdb
 186 176 0 0 0
SMALL
GASTEIGER

@<TRIPOS>ATOM
      1  N        -29.8690    7.5650  -12.9150 N.3    40  MET40      -0.1245
      2  CA       -29.9140    6.3040  -12.2090 C.3    40  MET40       0.1570
      3  C        -29.4960    5.1530  -13.1340 C.2    40  MET40       0.2261
      4  O        -28.7380    4.2750  -12.7310 O.2    40  MET40      -0.2867
      5  CB       -31.3260    6.0900  -11.6520 C.3    40  MET40       0.0387
      6  CG       -31.4120    5.1660  -10.4610 C.3    40  MET40       0.0595
      7  SD       -30.4700    5.6980   -9.0110 S.3    40  MET40      -0.1393
      8  CE       -30.1270    4.0750   -8.3310 C.3    40  MET40       0.0692
      9  N        -27.5190    5.5400  -15.5800 N.3    42  LEU42      -0.1231
     10  CA       -26.1030    5.8230  -15.7620 C.3    42  LEU42       0.1693
     11  C        -25.2850    5.2810  -14.5870 C.2    42  LEU42       0.2592
     12  O        -24.1940    4.7470  -14.7800 O.2    42  LEU42      -0.2718
     13  CB       -25.9040    7.3350  -15.8710 C.3    42  LEU42       0.0284
     14  CG       -25.2340    7.9890  -17.0860 C.3    42  LEU42       0.0019
     15  CD1      -25.7910    7.4860  -18.4210 C.3    42  LEU42       0.0001
     16  CD2      -25.4120    9.4890  -16.9830 C.3    42  LEU42       0.0001
     17  N        -25.8160    5.4270  -13.3750 N.am   43  LEU43      -0.1966
     18  CA       -25.1160    5.0140  -12.1590 C.3    43  LEU43       0.1728
     19  C        -25.0150    3.4970  -12.0050 C.2    43  LEU43       0.2616
     20  O        -24.0130    2.9780  -11.5130 O.2    43  LEU43      -0.2715
     21  CB       -25.8040    5.5990  -10.9250 C.3    43  LEU43       0.0311
     22  CG       -25.1450    6.8220  -10.2840 C.3    43  LEU43       0.0022
     23  CD1      -24.6410    7.7780  -11.3350 C.3    43  LEU43       0.0001
     24  CD2      -26.1000    7.5190   -9.3090 C.3    43  LEU43       0.0001
     25  N        -26.0700    2.7970  -12.4200 N.am   44  THR44      -0.1951
     26  CA       -26.1570    1.3640  -12.2130 C.3    44  THR44       0.1897
     27  C        -25.5410    0.6220  -13.3910 C.2    44  THR44       0.2313
     28  O        -25.1210   -0.5230  -13.2550 O.2    44  THR44      -0.2863
     29  CB       -27.6040    0.9060  -11.9590 C.3    44  THR44       0.1794
     30  OG1      -28.4540    1.3510  -13.0230 O.3    44  THR44      -0.2208
     31  CG2      -28.1150    1.4810  -10.6380 C.3    44  THR44       0.0378
     32  N        -22.7430    1.8180  -14.7090 N.3    46  LEU46      -0.1231
     33  CA       -21.3380    1.9110  -14.3240 C.3    46  LEU46       0.1693
     34  C        -21.0350    0.9070  -13.2120 C.2    46  LEU46       0.2591
     35  O        -20.0490    0.1800  -13.2930 O.2    46  LEU46      -0.2718
     36  CB       -20.9880    3.3250  -13.8520 C.3    46  LEU46       0.0284
     37  CG       -19.8640    4.0520  -14.6050 C.3    46  LEU46       0.0019
     38  CD1      -19.4400    5.3130  -13.8670 C.3    46  LEU46       0.0001
     39  CD2      -18.6520    3.1670  -14.8460 C.3    46  LEU46       0.0001
     40  N        -21.8940    0.8850  -12.1900 N.am   47  ALA47      -0.1980
     41  CA       -21.8160   -0.0780  -11.0940 C.3    47  ALA47       0.1597
     42  C        -21.7020   -1.5110  -11.5850 C.2    47  ALA47       0.2287
     43  O        -20.8410   -2.2520  -11.1230 O.2    47  ALA47      -0.2864
     44  CB       -23.0300    0.0610  -10.1390 C.3    47  ALA47       0.0319
     45  N        -18.2770   -1.8760  -13.1520 N.3    50  GLU50      -0.1245
     46  CA       -17.3030   -1.8920  -12.0700 C.3    50  GLU50       0.1567
     47  C        -17.3050   -3.2130  -11.3130 C.2    50  GLU50       0.2260
     48  O        -16.2680   -3.6670  -10.8370 O.2    50  GLU50      -0.2867
     49  CB       -17.5580   -0.7550  -11.0900 C.3    50  GLU50       0.0388
     50  CG       -17.0550    0.5730  -11.5640 C.3    50  GLU50       0.1160
     51  CD       -16.6960    1.4860  -10.4060 C.2    50  GLU50       0.3649
     52  OE1      -17.3760    2.5290  -10.2470 O.co2  50  GLU50      -0.2457
     53  OE2      -15.7360    1.1610   -9.6490 O.co2  50  GLU50      -0.2457
     54  N        -19.5810   -5.7580   -1.6820 N.3    79  TRP79      -0.1227
     55  CA       -19.5280   -5.0630   -2.9630 C.3    79  TRP79       0.1737
     56  C        -19.8530   -3.5530   -2.9560 C.2    79  TRP79       0.2595
     57  O        -19.1510   -2.7880   -3.6200 O.2    79  TRP79      -0.2718
     58  CB       -20.3590   -5.7990   -4.0090 C.3    79  TRP79       0.0564
     59  CG       -21.8260   -5.7060   -3.8110 C.ar   79  TRP79       0.0003
     60  CD1      -22.6010   -6.5190   -3.0530 C.ar   79  TRP79       0.0946
     61  CD2      -22.7080   -4.7450   -4.4070 C.ar   79  TRP79       0.0152
     62  NE1      -23.9240   -6.1240   -3.1280 N.ar   79  TRP79      -0.2442
     63  CE2      -24.0100   -5.0350   -3.9570 C.ar   79  TRP79       0.0810
     64  CE3      -22.5200   -3.6640   -5.2750 C.ar   79  TRP79       0.0012
     65  CZ2      -25.1160   -4.2880   -4.3460 C.ar   79  TRP79       0.0191
     66  CZ3      -23.6280   -2.9110   -5.6490 C.ar   79  TRP79       0.0001
     67  CH2      -24.9010   -3.2270   -5.1870 C.ar   79  TRP79       0.0015
     68  N        -20.9070   -3.1250   -2.2510 N.am   80  LEU80      -0.1980
     69  CA       -21.3240   -1.7210   -2.3160 C.3    80  LEU80       0.1596
     70  C        -20.3700   -0.8420   -1.5050 C.2    80  LEU80       0.2287
     71  O        -20.0060    0.2380   -1.9440 O.2    80  LEU80      -0.2864
     72  CB       -22.7990   -1.5260   -1.8950 C.3    80  LEU80       0.0297
     73  CG       -23.3350   -0.0910   -2.0230 C.3    80  LEU80       0.0022
     74  CD1      -23.1070    0.4810   -3.4510 C.3    80  LEU80       0.0001
     75  CD2      -24.7910    0.0080   -1.6280 C.3    80  LEU80       0.0001
     76  N        -17.4160   -0.3640   -3.7090 N.3    83  LEU83      -0.1231
     77  CA       -17.7890    0.6570   -4.7100 C.3    83  LEU83       0.1693
     78  C        -17.6770    2.0590   -4.1240 C.2    83  LEU83       0.2591
     79  O        -17.0460    2.9380   -4.7050 O.2    83  LEU83      -0.2718
     80  CB       -19.2160    0.4110   -5.2100 C.3    83  LEU83       0.0284
     81  CG       -19.4470   -0.0600   -6.6530 C.3    83  LEU83       0.0019
     82  CD1      -18.2880   -0.8210   -7.2580 C.3    83  LEU83       0.0001
     83  CD2      -20.7400   -0.8400   -6.7750 C.3    83  LEU83       0.0001
     84  N        -18.2650    2.2400   -2.9450 N.am   84  MET84      -0.1979
     85  CA       -18.2530    3.5200   -2.2450 C.3    84  MET84       0.1605
     86  C        -16.8830    4.0180   -1.7960 C.2    84  MET84       0.2287
     87  O        -16.5800    5.1900   -1.9790 O.2    84  MET84      -0.2864
     88  CB       -19.2160    3.4860   -1.0480 C.3    84  MET84       0.0413
     89  CG       -20.6740    3.2190   -1.4260 C.3    84  MET84       0.0598
     90  SD       -21.6970    3.1510    0.0680 S.3    84  MET84      -0.1393
     91  CE       -23.2590    3.7110   -0.6150 C.3    84  MET84       0.0692
     92  N        -15.3220    5.2860   -4.8630 N.3    87  LEU87      -0.1245
     93  CA       -15.8900    6.5680   -5.2820 C.3    87  LEU87       0.1561
     94  C        -15.3350    7.7190   -4.4390 C.2    87  LEU87       0.2260
     95  O        -14.8610    8.7230   -4.9520 O.2    87  LEU87      -0.2867
     96  CB       -17.4110    6.5150   -5.1460 C.3    87  LEU87       0.0270
     97  CG       -18.1590    7.8250   -5.3570 C.3    87  LEU87       0.0019
     98  CD1      -17.8940    8.3050   -6.7770 C.3    87  LEU87       0.0001
     99  CD2      -19.6410    7.6150   -5.1130 C.3    87  LEU87       0.0001
    100  N        -11.6800    8.4110   -5.3610 N.3    90  ARG90      -0.1245
    101  CA       -11.6760    9.1300   -6.6430 C.3    90  ARG90       0.1563
    102  C        -11.9780   10.6310   -6.4650 C.2    90  ARG90       0.2260
    103  O        -11.4090   11.4860   -7.1500 O.2    90  ARG90      -0.2867
    104  CB       -12.7710    8.5440   -7.5560 C.3    90  ARG90       0.0307
    105  CG       -12.3390    7.7050   -8.7430 C.3    90  ARG90       0.0489
    106  CD       -12.2710    6.2230   -8.4360 C.3    90  ARG90       0.2205
    107  NE       -13.5690    5.5180   -8.3980 N.pl3  90  ARG90      -0.0865
    108  CZ       -14.6760    5.9500   -8.9840 C.cat  90  ARG90       0.5346
    109  NH1      -15.8090    5.2610   -8.8810 N.pl3  90  ARG90       0.1354
    110  NH2      -14.6400    7.0770   -9.6610 N.pl3  90  ARG90       0.1354
    111  N        -17.8870    9.9080  -10.2570 N.3   100  PHE100     -0.1241
    112  CA       -18.3530    8.5840  -10.5890 C.3   100  PHE100      0.1605
    113  C        -17.5310    8.0290  -11.7440 C.2   100  PHE100      0.2264
    114  O        -17.2570    6.8470  -11.7900 O.2   100  PHE100     -0.2867
    115  CB       -19.8360    8.6340  -10.9350 C.3   100  PHE100      0.0534
    116  CG       -20.7330    8.7810   -9.7410 C.ar  100  PHE100     -0.0203
    117  CD1      -21.3100   10.0110   -9.4330 C.ar  100  PHE100     -0.0042
    118  CD2      -21.0140    7.6840   -8.9200 C.ar  100  PHE100     -0.0042
    119  CE1      -22.1560   10.1490   -8.3310 C.ar  100  PHE100     -0.0003
    120  CE2      -21.8530    7.8150   -7.8230 C.ar  100  PHE100     -0.0003
    121  CZ       -22.4220    9.0530   -7.5220 C.ar  100  PHE100     -0.0000
    122  N        -18.1040   11.7330  -15.5400 N.3   104  LEU104     -0.1245
    123  CA       -19.3120   11.8710  -14.7240 C.3   104  LEU104      0.1561
    124  C        -18.9340   12.3590  -13.3320 C.2   104  LEU104      0.2260
    125  O        -18.7100   11.5620  -12.4040 O.2   104  LEU104     -0.2867
    126  CB       -20.0870   10.5520  -14.6340 C.3   104  LEU104      0.0270
    127  CG       -21.5310   10.7090  -14.1620 C.3   104  LEU104      0.0019
    128  CD1      -22.2740   11.6670  -15.0860 C.3   104  LEU104      0.0001
    129  CD2      -22.2180    9.3590  -14.1180 C.3   104  LEU104      0.0001
    130  N        -31.6450   10.2100   -2.8210 N.3   116  MET116     -0.1245
    131  CA       -30.2360   10.1220   -3.1780 C.3   116  MET116      0.1570
    132  C        -29.3550   11.1400   -2.4520 C.2   116  MET116      0.2261
    133  O        -28.2230   10.8360   -2.0880 O.2   116  MET116     -0.2867
    134  CB       -30.0770   10.2640   -4.6980 C.3   116  MET116      0.0387
    135  CG       -28.6500   10.1620   -5.2330 C.3   116  MET116      0.0595
    136  SD       -28.1670    8.4960   -5.7390 S.3   116  MET116     -0.1393
    137  CE       -28.4260    7.6010   -4.2110 C.3   116  MET116      0.0692
    138  N        -27.5210   10.3570    0.8520 N.3   119  ILE119     -0.1231
    139  CA       -26.4200    9.4400    0.6120 C.3   119  ILE119      0.1692
    140  C        -25.2340   10.1620   -0.0320 C.2   119  ILE119      0.2592
    141  O        -24.1050    9.9930    0.4010 O.2   119  ILE119     -0.2718
    142  CB       -26.8920    8.2090   -0.2040 C.3   119  ILE119      0.0266
    143  CG1      -27.9390    7.4340    0.6020 C.3   119  ILE119      0.0019
    144  CG2      -25.7150    7.3220   -0.5820 C.3   119  ILE119      0.0020
    145  CD1      -28.6590    6.3240   -0.1790 C.3   119  ILE119      0.0001
    146  N        -25.4910   10.9750   -1.0520 N.am  120  PHE120     -0.1976
    147  CA       -24.4630   11.8570   -1.6130 C.3   120  PHE120      0.1639
    148  C        -23.6970   12.5840   -0.5170 C.2   120  PHE120      0.2290
    149  O        -22.4770   12.6000   -0.5140 O.2   120  PHE120     -0.2864
    150  CB       -25.0950   12.8920   -2.5430 C.3   120  PHE120      0.0560
    151  CG       -24.9910   12.5410   -3.9840 C.ar  120  PHE120     -0.0200
    152  CD1      -24.6630   13.5050   -4.9200 C.ar  120  PHE120     -0.0042
    153  CD2      -25.1950   11.2360   -4.4050 C.ar  120  PHE120     -0.0042
    154  CE1      -24.5650   13.1800   -6.2650 C.ar  120  PHE120     -0.0003
    155  CE2      -25.0990   10.9030   -5.7490 C.ar  120  PHE120     -0.0003
    156  CZ       -24.7820   11.8730   -6.6770 C.ar  120  PHE120     -0.0000
    157  N        -21.3430   10.3870    1.4220 N.3   123  LEU123     -0.1245
    158  CA       -20.2000   10.0850    0.5790 C.3   123  LEU123      0.1561
    159  C        -19.2310   11.2630    0.5270 C.2   123  LEU123      0.2260
    160  O        -18.0220   11.0710    0.6120 O.2   123  LEU123     -0.2867
    161  CB       -20.6660    9.7110   -0.8330 C.3   123  LEU123      0.0270
    162  CG       -21.2810    8.3140   -0.9170 C.3   123  LEU123      0.0019
    163  CD1      -22.0310    8.0750   -2.2200 C.3   123  LEU123      0.0001
    164  CD2      -20.1780    7.2990   -0.7260 C.3   123  LEU123      0.0001
    165  N        -27.4480    2.6290    1.2660 N.3   209  GLY209     -0.1225
    166  CA       -27.4630    2.5500   -0.1950 C.3   209  GLY209      0.1811
    167  C        -28.2000    1.3190   -0.6920 C.2   209  GLY209      0.2280
    168  O        -28.9420    1.3840   -1.6780 O.2   209  GLY209     -0.2866
    169  N        -31.8230    1.9920   -0.5590 N.3   212  HIS212     -0.1226
    170  CA       -32.2140    2.9000   -1.6350 C.3   212  HIS212      0.1752
    171  C        -32.2450    2.1410   -2.9470 C.2   212  HIS212      0.2595
    172  O        -33.2460    2.1740   -3.6770 O.2   212  HIS212     -0.2718
    173  CB       -31.2420    4.0710   -1.7430 C.3   212  HIS212      0.0759
    174  CG       -31.5870    5.0500   -2.8210 C.ar  212  HIS212      0.0818
    175  ND1      -31.1530    4.9080   -4.1240 N.ar  212  HIS212     -0.2268
    176  CD2      -32.3120    6.1950   -2.7890 C.ar  212  HIS212      0.1154
    177  CE1      -31.6040    5.9190   -4.8490 C.ar  212  HIS212      0.1986
    178  NE2      -32.3040    6.7170   -4.0610 N.ar  212  HIS212     -0.2212
    179  N        -31.1540    1.4430   -3.2420 N.am  213  LEU213     -0.1980
    180  CA       -31.1000    0.6130   -4.4380 C.3   213  LEU213      0.1596
    181  C        -32.3190   -0.3010   -4.5070 C.2   213  LEU213      0.2287
    182  O        -32.9080   -0.4890   -5.5700 O.2   213  LEU213     -0.2864
    183  CB       -29.8110   -0.2010   -4.4790 C.3   213  LEU213      0.0297
    184  CG       -29.6230   -0.9980   -5.7750 C.3   213  LEU213      0.0022
    185  CD1      -29.9130   -0.1160   -6.9940 C.3   213  LEU213      0.0001
    186  CD2      -28.2320   -1.6300   -5.8550 C.3   213  LEU213      0.0001
@<TRIPOS>BOND
     1    15    14    1
     2    14    16    1
     3    14    13    1
     4    13    10    1
     5    10     9    1
     6    10    11    1
     7   122   123    1
     8   128   127    1
     9    39    37    1
    10    12    11    2
    11   123   126    1
    12   123   124    1
    13    32    33    1
    14   126   127    1
    15    37    38    1
    16    37    36    1
    17    11    17   am
    18    33    36    1
    19    33    34    1
    20   127   129    1
    21    27    28    2
    22    27    26    1
    23    17    18    1
    24   124   125    2
    25    35    34    2
    26    34    40   am
    27    45    46    1
    28     3     4    2
    29     3     2    1
    30    30    29    1
    31     1     2    1
    32    25    26    1
    33    25    19   am
    34    26    29    1
    35     2     5    1
    36    40    41    1
    37    18    19    1
    38    18    21    1
    39    46    47    1
    40    46    49    1
    41    19    20    2
    42    29    31    1
    43   114   113    2
    44   113   112    1
    45     5     6    1
    46    42    43    2
    47    42    41    1
    48    50    49    1
    49    50    51    1
    50    23    22    1
    51    47    48    2
    52    41    44    1
    53   115   112    1
    54   115   116    1
    55    21    22    1
    56   112   111    1
    57     6     7    1
    58    51    52   ar
    59    51    53   ar
    60    22    24    1
    61   116   117   ar
    62   116   118   ar
    63   110   108    1
    64   117   119   ar
    65     7     8    1
    66   108   109    1
    67   108   107    2
    68   118   120   ar
    69   105   106    1
    70   105   104    1
    71   106   107    1
    72   119   121   ar
    73   120   121   ar
    74   104   101    1
    75    82    81    1
    76   103   102    2
    77   185   184    1
    78    98    97    1
    79    83    81    1
    80   156   154   ar
    81   156   155   ar
    82    81    80    1
    83   101   102    1
    84   101   100    1
    85   154   152   ar
    86   186   184    1
    87   184   183    1
    88   155   153   ar
    89   136   135    1
    90   136   137    1
    91    66    64   ar
    92    66    67   ar
    93   182   181    2
    94    97    96    1
    95    97    99    1
    96    93    96    1
    97    93    92    1
    98    93    94    1
    99    64    61   ar
   100   135   134    1
   101    80    77    1
   102    67    65   ar
   103    95    94    2
   104   152   151   ar
   105   177   175   ar
   106   177   178   ar
   107    77    78    1
   108    77    76    1
   109    79    78    2
   110   134   131    1
   111   181   180    1
   112   183   180    1
   113   180   179    1
   114    61    63   ar
   115    61    59   ar
   116   153   151   ar
   117    65    63   ar
   118    78    84   am
   119   175   174   ar
   120   178   176   ar
   121    58    59    1
   122    58    55    1
   123   151   150    1
   124    63    62   ar
   125    59    60   ar
   126   172   171    2
   127    57    56    2
   128    74    73    1
   129   179   171   am
   130   131   130    1
   131   131   132    1
   132    62    60   ar
   133    55    56    1
   134    55    54    1
   135    56    68   am
   136   171   170    1
   137    84    85    1
   138   174   176   ar
   139   174   173    1
   140   150   147    1
   141   132   133    2
   142    69    68    1
   143    69    72    1
   144    69    70    1
   145    85    86    1
   146    85    88    1
   147   163   162    1
   148    73    72    1
   149    73    75    1
   150    87    86    2
   151    71    70    2
   152   173   170    1
   153   168   167    2
   154   170   169    1
   155   147   146    1
   156   147   148    1
   157    89    88    1
   158    89    90    1
   159   146   140   am
   160   162   161    1
   161   162   164    1
   162   161   158    1
   163   167   166    1
   164    91    90    1
   165   144   142    1
   166   148   149    2
   167   142   143    1
   168   142   139    1
   169   166   165    1
   170   145   143    1
   171   140   141    2
   172   140   139    1
   173   159   158    1
   174   159   160    2
   175   158   157    1
   176   139   138    1
