@<TRIPOS>MOLECULE
tmp/2g5pA00.pdb
 185 181 0 0 0
SMALL
GASTEIGER

@<TRIPOS>ATOM
      1  N         -6.3370   -3.2110    3.6190 N.3    87  ARG87      -0.1231
      2  CA        -5.3750   -3.9410    4.4370 C.3    87  ARG87       0.1694
      3  C         -5.8070   -4.1640    5.8830 C.2    87  ARG87       0.2592
      4  O         -5.4210   -5.1510    6.4990 O.2    87  ARG87      -0.2718
      5  CB        -4.0040   -3.2540    4.3910 C.3    87  ARG87       0.0321
      6  CG        -3.1600   -3.4530    5.6490 C.3    87  ARG87       0.0489
      7  CD        -1.6970   -3.7120    5.3360 C.3    87  ARG87       0.2205
      8  NE        -1.1640   -2.8470    4.2850 N.pl3  87  ARG87      -0.0865
      9  CZ        -0.0410   -3.1090    3.6260 C.cat  87  ARG87       0.5346
     10  NH1        0.6500   -4.2030    3.9210 N.pl3  87  ARG87       0.1354
     11  NH2        0.3810   -2.3040    2.6600 N.pl3  87  ARG87       0.1354
     12  N         -6.6210   -3.2700    6.4240 N.am   88  HIS88      -0.1976
     13  CA        -7.0630   -3.4260    7.8060 C.3    88  HIS88       0.1656
     14  C         -8.5830   -3.4380    7.9500 C.2    88  HIS88       0.2291
     15  O         -9.1280   -4.1070    8.8240 O.2    88  HIS88      -0.2864
     16  CB        -6.4840   -2.2960    8.6590 C.3    88  HIS88       0.0771
     17  CG        -4.9930   -2.1850    8.5830 C.ar   88  HIS88       0.0820
     18  ND1       -4.1480   -3.1640    9.0630 N.ar   88  HIS88      -0.2267
     19  CD2       -4.1940   -1.2070    8.0900 C.ar   88  HIS88       0.1154
     20  CE1       -2.8950   -2.7930    8.8720 C.ar   88  HIS88       0.1986
     21  NE2       -2.8950   -1.6090    8.2830 N.ar   88  HIS88      -0.2212
     22  N         -4.3060    3.2180    5.5980 N.3   167  GLU167     -0.1231
     23  CA        -3.0390    2.6870    5.1180 C.3   167  GLU167      0.1699
     24  C         -1.7780    3.4020    5.5690 C.2   167  GLU167      0.2592
     25  O         -0.7950    2.7560    5.9180 O.2   167  GLU167     -0.2718
     26  CB        -3.0580    2.6580    3.5870 C.3   167  GLU167      0.0402
     27  CG        -1.7500    2.2470    2.9200 C.3   167  GLU167      0.1161
     28  CD        -1.4580    0.7540    3.0260 C.2   167  GLU167      0.3649
     29  OE1       -2.3910   -0.0230    3.3390 O.co2 167  GLU167     -0.2457
     30  OE2       -0.2940    0.3580    2.7780 O.co2 167  GLU167     -0.2457
     31  N         -1.8110    4.7270    5.5790 N.am  168  GLU168     -0.1966
     32  CA        -0.6230    5.4950    5.9100 C.3   168  GLU168      0.1733
     33  C         -0.4150    6.0530    7.3160 C.2   168  GLU168      0.2616
     34  O          0.7330    6.2460    7.7190 O.2   168  GLU168     -0.2715
     35  CB        -0.4720    6.6430    4.8980 C.3   168  GLU168      0.0429
     36  CG        -0.4390    6.2030    3.4320 C.3   168  GLU168      0.1163
     37  CD         0.6660    5.1970    3.1170 C.2   168  GLU168      0.3649
     38  OE1        1.5760    5.0190    3.9560 O.co2 168  GLU168     -0.2457
     39  OE2        0.6310    4.5900    2.0210 O.co2 168  GLU168     -0.2457
     40  N         -1.4760    6.3120    8.0730 N.am  169  VAL169     -0.1977
     41  CA        -1.2540    6.8910    9.3920 C.3   169  VAL169      0.1596
     42  C         -1.6620    6.0740   10.6090 C.2   169  VAL169      0.2287
     43  O         -0.8320    5.8220   11.4730 O.2   169  VAL169     -0.2864
     44  CB        -1.8500    8.3470    9.4710 C.3   169  VAL169      0.0276
     45  CG1       -2.8430    8.5730    8.3530 C.3   169  VAL169      0.0022
     46  CG2       -2.4840    8.5990   10.8250 C.3   169  VAL169      0.0022
     47  N         -2.9060    2.9030   10.4460 N.3   171  SER171     -0.1217
     48  CA        -2.7750    1.4710   10.1860 C.3   171  SER171      0.1889
     49  C         -3.9440    0.7190   10.8290 C.2   171  SER171      0.2288
     50  O         -3.7740   -0.3650   11.3920 O.2   171  SER171     -0.2866
     51  CB        -1.4490    0.9440   10.7410 C.3   171  SER171      0.2089
     52  OG        -0.3600    1.5080   10.0450 O.3   171  SER171     -0.2183
     53  N          7.6410    6.9160   10.7370 N.3   319  PHE319     -0.1227
     54  CA         6.5560    6.9260    9.7520 C.3   319  PHE319      0.1736
     55  C          5.5470    8.0040   10.1280 C.2   319  PHE319      0.2595
     56  O          4.6990    8.3950    9.3250 O.2   319  PHE319     -0.2718
     57  CB         5.8770    5.5610    9.6910 C.3   319  PHE319      0.0547
     58  CG         6.6560    4.5400    8.9180 C.ar  319  PHE319     -0.0202
     59  CD1        6.5820    4.5000    7.5360 C.ar  319  PHE319     -0.0042
     60  CD2        7.4980    3.6460    9.5700 C.ar  319  PHE319     -0.0042
     61  CE1        7.3330    3.5860    6.8060 C.ar  319  PHE319     -0.0003
     62  CE2        8.2570    2.7250    8.8470 C.ar  319  PHE319     -0.0003
     63  CZ         8.1740    2.6950    7.4590 C.ar  319  PHE319     -0.0000
     64  N          5.6680    8.4790   11.3650 N.am  320  ARG320     -0.1980
     65  CA         4.8260    9.5340   11.9320 C.3   320  ARG320      0.1597
     66  C          5.3730    9.8020   13.3320 C.2   320  ARG320      0.2287
     67  O          6.1440    8.9910   13.8660 O.2   320  ARG320     -0.2864
     68  CB         3.3550    9.0900   12.0240 C.3   320  ARG320      0.0334
     69  CG         3.1120    7.8320   12.8550 C.3   320  ARG320      0.0492
     70  CD         1.6220    7.5920   13.1210 C.3   320  ARG320      0.2205
     71  NE         1.4000    6.3390   13.8460 N.pl3 320  ARG320     -0.0865
     72  CZ         0.3080    6.0510   14.5530 C.cat 320  ARG320      0.5346
     73  NH1       -0.6860    6.9250   14.6440 N.pl3 320  ARG320      0.1354
     74  NH2        0.2190    4.8870   15.1860 N.pl3 320  ARG320      0.1354
     75  N         13.7670   -4.4490   -0.7400 N.3   509  TYR509     -0.1241
     76  CA        12.5910   -3.6590   -0.4010 C.3   509  TYR509      0.1605
     77  C         13.1590   -2.2440   -0.4050 C.2   509  TYR509      0.2264
     78  O         12.8900   -1.4530   -1.3090 O.2   509  TYR509     -0.2867
     79  CB        12.0550   -4.0000    0.9880 C.3   509  TYR509      0.0534
     80  CG        10.8340   -3.1830    1.3230 C.ar  509  TYR509     -0.0201
     81  CD1        9.6310   -3.3850    0.6460 C.ar  509  TYR509     -0.0009
     82  CD2       10.8980   -2.1480    2.2580 C.ar  509  TYR509     -0.0009
     83  CE1        8.5240   -2.5760    0.8860 C.ar  509  TYR509      0.0417
     84  CE2        9.7940   -1.3320    2.5060 C.ar  509  TYR509      0.0417
     85  CZ         8.6110   -1.5500    1.8150 C.ar  509  TYR509      0.1957
     86  OH         7.5220   -0.7360    2.0410 O.3   509  TYR509     -0.2866
     87  N          6.2720   -4.1700   -4.2850 N.3   592  SER592     -0.1202
     88  CA         5.8790   -2.8150   -3.9420 C.3   592  SER592      0.2020
     89  C          7.1110   -1.8710   -3.9890 C.2   592  SER592      0.2618
     90  O          7.7100   -1.8030   -5.2470 O.2   592  SER592     -0.2717
     91  CB         5.2060   -2.8250   -2.5810 C.3   592  SER592      0.2103
     92  OG         4.7380   -1.5300   -2.3710 O.3   592  SER592     -0.2182
     93  N          7.5840   -1.2820   -2.8910 N.am  593  TYR593     -0.1975
     94  CA         8.7740   -0.4300   -2.9410 C.3   593  TYR593      0.1639
     95  C          9.9540   -1.2600   -3.4520 C.2   593  TYR593      0.2290
     96  O         10.8490   -0.7400   -4.1210 O.2   593  TYR593     -0.2864
     97  CB         9.1110    0.1300   -1.5510 C.3   593  TYR593      0.0560
     98  CG         9.9940    1.3590   -1.6010 C.ar  593  TYR593     -0.0198
     99  CD1       11.3370    1.2750   -1.9850 C.ar  593  TYR593     -0.0009
    100  CD2        9.4650    2.6190   -1.3390 C.ar  593  TYR593     -0.0009
    101  CE1       12.1250    2.4290   -2.1160 C.ar  593  TYR593      0.0417
    102  CE2       10.2350    3.7690   -1.4650 C.ar  593  TYR593      0.0417
    103  CZ        11.5590    3.6700   -1.8560 C.ar  593  TYR593      0.1957
    104  OH        12.2900    4.8230   -2.0080 O.3   593  TYR593     -0.2866
    105  N          6.0050    0.4930   -7.7450 N.3   618  VAL618     -0.1245
    106  CA         5.6310    1.8910   -7.9350 C.3   618  VAL618      0.1561
    107  C          6.4720    2.2020   -9.1750 C.2   618  VAL618      0.2260
    108  O          7.5780    1.6720   -9.3070 O.2   618  VAL618     -0.2867
    109  CB         6.1080    2.7760   -6.7460 C.3   618  VAL618      0.0252
    110  CG1        6.2050    4.2360   -7.1670 C.3   618  VAL618      0.0019
    111  CG2        5.1370    2.6410   -5.5870 C.3   618  VAL618      0.0019
    112  N          6.2660    8.3570   -8.6620 N.3   621  TRP621     -0.1241
    113  CA         5.6870    8.8530   -7.4320 C.3   621  TRP621      0.1605
    114  C          4.4140    9.6540   -7.5020 C.2   621  TRP621      0.2264
    115  O          3.6940    9.7460   -6.5130 O.2   621  TRP621     -0.2867
    116  CB         6.7680    9.5860   -6.6330 C.3   621  TRP621      0.0550
    117  CG         7.8000    8.6040   -6.1760 C.ar  621  TRP621      0.0003
    118  CD1        9.0890    8.5030   -6.6090 C.ar  621  TRP621      0.0946
    119  CD2        7.5850    7.4910   -5.2940 C.ar  621  TRP621      0.0152
    120  NE1        9.6920    7.3860   -6.0610 N.ar  621  TRP621     -0.2442
    121  CE2        8.7890    6.7490   -5.2490 C.ar  621  TRP621      0.0810
    122  CE3        6.4900    7.0460   -4.5430 C.ar  621  TRP621      0.0012
    123  CZ2        8.9270    5.5820   -4.4770 C.ar  621  TRP621      0.0191
    124  CZ3        6.6300    5.8820   -3.7740 C.ar  621  TRP621      0.0001
    125  CH2        7.8410    5.1690   -3.7530 C.ar  621  TRP621      0.0015
    126  N          1.3950    7.4230   -6.5540 N.3   624  TYR624     -0.1241
    127  CA         1.1450    6.8680   -5.2310 C.3   624  TYR624      0.1605
    128  C          0.4460    7.8620   -4.3170 C.2   624  TYR624      0.2264
    129  O          0.3620    9.0490   -4.6390 O.2   624  TYR624     -0.2867
    130  CB         2.4390    6.3550   -4.6010 C.3   624  TYR624      0.0534
    131  CG         2.1750    5.3240   -3.5280 C.ar  624  TYR624     -0.0201
    132  CD1        1.5150    4.1320   -3.8310 C.ar  624  TYR624     -0.0009
    133  CD2        2.5350    5.5600   -2.2030 C.ar  624  TYR624     -0.0009
    134  CE1        1.2180    3.2050   -2.8450 C.ar  624  TYR624      0.0417
    135  CE2        2.2400    4.6390   -1.2080 C.ar  624  TYR624      0.0417
    136  CZ         1.5800    3.4650   -1.5360 C.ar  624  TYR624      0.1957
    137  OH         1.2620    2.5740   -0.5470 O.3   624  TYR624     -0.2866
    138  N          2.1110    9.1890    1.9920 N.3   628  TYR628     -0.1241
    139  CA         3.3750    8.4840    1.9800 C.3   628  TYR628      0.1605
    140  C          4.3980    9.2030    1.1160 C.2   628  TYR628      0.2264
    141  O          5.4530    9.6240    1.5990 O.2   628  TYR628     -0.2867
    142  CB         3.1920    7.0610    1.4550 C.3   628  TYR628      0.0534
    143  CG         4.4760    6.2690    1.4280 C.ar  628  TYR628     -0.0201
    144  CD1        5.3260    6.3050    0.3170 C.ar  628  TYR628     -0.0009
    145  CD2        4.8580    5.4930    2.5280 C.ar  628  TYR628     -0.0009
    146  CE1        6.5320    5.5770    0.3020 C.ar  628  TYR628      0.0417
    147  CE2        6.0490    4.7690    2.5250 C.ar  628  TYR628      0.0417
    148  CZ         6.8800    4.8060    1.4150 C.ar  628  TYR628      0.1957
    149  OH         8.0230    4.0270    1.4070 O.3   628  TYR628     -0.2866
    150  N          5.7010   12.6210    2.1560 N.3   631  ARG631     -0.1245
    151  CA         6.5040   12.5920    3.3680 C.3   631  ARG631      0.1563
    152  C          7.9940   12.5590    3.0340 C.2   631  ARG631      0.2260
    153  O          8.8110   13.1060    3.7690 O.2   631  ARG631     -0.2867
    154  CB         6.1320   11.3760    4.2130 C.3   631  ARG631      0.0307
    155  CG         6.8070   11.3410    5.5760 C.3   631  ARG631      0.0489
    156  CD         5.9920   10.5000    6.5450 C.3   631  ARG631      0.2205
    157  NE         5.9880    9.1000    6.1630 N.pl3 631  ARG631     -0.0865
    158  CZ         4.9170    8.3160    6.1680 C.cat 631  ARG631      0.5346
    159  NH1        3.7220    8.7810    6.5330 N.pl3 631  ARG631      0.1354
    160  NH2        5.0610    7.0530    5.8120 N.pl3 631  ARG631      0.1354
    161  N         -3.8670   -0.3250   -3.6580 N.3   672  ASN672     -0.1225
    162  CA        -2.7390    0.3690   -3.0450 C.3   672  ASN672      0.1785
    163  C         -1.7900    0.8900   -4.1210 C.2   672  ASN672      0.2597
    164  O         -1.7140    2.0970   -4.3520 O.2   672  ASN672     -0.2718
    165  CB        -2.0100   -0.5880   -2.1050 C.3   672  ASN672      0.1169
    166  CG        -1.0510    0.1230   -1.1970 C.2   672  ASN672      0.2627
    167  OD1       -0.6360    1.2440   -1.4800 O.2   672  ASN672     -0.2716
    168  ND2       -0.6830   -0.5220   -0.1020 N.am  672  ASN672     -0.0877
    169  N         -1.0470   -0.0130   -4.7580 N.am  673  VAL673     -0.1980
    170  CA        -0.1740    0.3860   -5.8640 C.3   673  VAL673      0.1595
    171  C         -1.0070   -0.0090   -7.0800 C.2   673  VAL673      0.2287
    172  O         -1.0250   -1.1680   -7.4900 O.2   673  VAL673     -0.2864
    173  CB         1.1660   -0.3930   -5.9000 C.3   673  VAL673      0.0276
    174  CG1        2.0050    0.1030   -7.0610 C.3   673  VAL673      0.0022
    175  CG2        1.9360   -0.2030   -4.5860 C.3   673  VAL673      0.0022
    176  N         -3.0310   -5.8880   -3.7130 N.3   702  HIS702     -0.1241
    177  CA        -1.6140   -5.7370   -3.4230 C.3   702  HIS702      0.1621
    178  C         -0.9320   -6.9670   -2.8480 C.2   702  HIS702      0.2264
    179  O          0.2550   -7.1910   -3.0820 O.2   702  HIS702     -0.2867
    180  CB        -1.3890   -4.5540   -2.4820 C.3   702  HIS702      0.0745
    181  CG         0.0370   -4.1190   -2.4150 C.ar  702  HIS702      0.0817
    182  ND1        0.7360   -3.7160   -3.5310 N.ar  702  HIS702     -0.2268
    183  CD2        0.9090   -4.0670   -1.3820 C.ar  702  HIS702      0.1154
    184  CE1        1.9800   -3.4350   -3.1890 C.ar  702  HIS702      0.1986
    185  NE2        2.1120   -3.6400   -1.8910 N.ar  702  HIS702     -0.2212
@<TRIPOS>BOND
     1   108   107    2
     2   107   106    1
     3   112   113    1
     4   106   105    1
     5   106   109    1
     6   114   113    1
     7   114   115    2
     8   172   171    2
     9   113   116    1
    10   110   109    1
    11   171   170    1
    12   174   173    1
    13   109   111    1
    14   116   117    1
    15   118   117   ar
    16   118   120   ar
    17   126   127    1
    18   117   119   ar
    19   120   121   ar
    20   173   170    1
    21   173   175    1
    22   170   169    1
    23   119   121   ar
    24   119   122   ar
    25   121   123   ar
    26    90    89    2
    27   127   130    1
    28   127   128    1
    29   169   163   am
    30   129   128    2
    31   130   131    1
    32   122   124   ar
    33   123   125   ar
    34   164   163    2
    35    87    88    1
    36    96    95    2
    37   163   162    1
    38    89    88    1
    39    89    93   am
    40    88    91    1
    41   132   131   ar
    42   132   134   ar
    43   124   125   ar
    44   176   177    1
    45   161   162    1
    46   182   184   ar
    47   182   181   ar
    48   131   133   ar
    49    95    94    1
    50   177   178    1
    51   177   180    1
    52   184   185   ar
    53   179   178    2
    54   162   165    1
    55    94    93    1
    56    94    97    1
    57   134   136   ar
    58    91    92    1
    59   180   181    1
    60   181   183   ar
    61   133   135   ar
    62   101    99   ar
    63   101   103   ar
    64   165   166    1
    65   104   103    1
    66    99    98   ar
    67   185   183   ar
    68   103   102   ar
    69    98    97    1
    70    98   100   ar
    71   136   135   ar
    72   136   137    1
    73   167   166    2
    74   102   100   ar
    75    78    77    2
    76   166   168   am
    77    75    76    1
    78    77    76    1
    79    76    79    1
    80   146   144   ar
    81   146   148   ar
    82   144   143   ar
    83    81    83   ar
    84    81    80   ar
    85    83    85   ar
    86    79    80    1
    87   140   141    2
    88   140   139    1
    89    80    82   ar
    90   149   148    1
    91   148   147   ar
    92   143   142    1
    93   143   145   ar
    94   142   139    1
    95    85    86    1
    96    85    84   ar
    97   139   138    1
    98    39    37   ar
    99   150   151    1
   100    82    84   ar
   101   147   145   ar
   102    11     9    1
   103    30    28   ar
   104    27    28    1
   105    27    26    1
   106    28    29   ar
   107   152   151    1
   108   152   153    2
   109    37    36    1
   110    37    38   ar
   111   151   154    1
   112    36    35    1
   113    26    23    1
   114     1     2    1
   115     9    10    1
   116     9     8    2
   117   154   155    1
   118     8     7    1
   119     5     2    1
   120     5     6    1
   121     2     3    1
   122    35    32    1
   123    23    24    1
   124    23    22    1
   125     7     6    1
   126    24    31   am
   127    24    25    2
   128   155   156    1
   129    31    32    1
   130   160   158    1
   131     3    12   am
   132     3     4    2
   133    32    33    1
   134   157   158    2
   135   157   156    1
   136   158   159    1
   137    12    13    1
   138    61    63   ar
   139    61    59   ar
   140    33    34    2
   141    33    40   am
   142    63    62   ar
   143    59    58   ar
   144    13    14    1
   145    13    16    1
   146    14    15    2
   147    40    41    1
   148    19    21   ar
   149    19    17   ar
   150    21    20   ar
   151    45    44    1
   152    17    16    1
   153    17    18   ar
   154    62    60   ar
   155    20    18   ar
   156    58    60   ar
   157    58    57    1
   158    56    55    2
   159    41    44    1
   160    41    42    1
   161    44    46    1
   162    57    54    1
   163    54    55    1
   164    54    53    1
   165    52    51    1
   166    55    64   am
   167    48    47    1
   168    48    51    1
   169    48    49    1
   170    42    43    2
   171    49    50    2
   172    64    65    1
   173    65    68    1
   174    65    66    1
   175    68    69    1
   176    69    70    1
   177    70    71    1
   178    66    67    2
   179    71    72    2
   180    72    73    1
   181    72    74    1
