@<TRIPOS>MOLECULE
tmp/2g5tA00.pdb
 167 163 0 0 0
SMALL
GASTEIGER

@<TRIPOS>ATOM
      1  N         12.9350    7.2520   35.3100 N.3    87  ARG87      -0.1231
      2  CA        12.3360    6.6890   36.5230 C.3    87  ARG87       0.1694
      3  C         12.5420    7.5670   37.7590 C.2    87  ARG87       0.2592
      4  O         11.6720    7.6360   38.6300 O.2    87  ARG87      -0.2718
      5  CB        12.8850    5.2790   36.8050 C.3    87  ARG87       0.0321
      6  CG        12.1050    4.5040   37.8770 C.3    87  ARG87       0.0489
      7  CD        12.8540    3.2660   38.3660 C.3    87  ARG87       0.2205
      8  NE        13.1140    2.3020   37.2930 N.pl3  87  ARG87      -0.0865
      9  CZ        12.3050    1.3020   36.9520 C.cat  87  ARG87       0.5346
     10  NH1       11.1690    1.1140   37.6010 N.pl3  87  ARG87       0.1354
     11  NH2       12.6400    0.4840   35.9620 N.pl3  87  ARG87       0.1354
     12  N         13.6860    8.2420   37.8290 N.am   88  HIS88      -0.1976
     13  CA        13.9950    9.0980   38.9770 C.3    88  HIS88       0.1656
     14  C         14.2150   10.5700   38.6360 C.2    88  HIS88       0.2291
     15  O         13.8820   11.4490   39.4330 O.2    88  HIS88      -0.2864
     16  CB        15.2410    8.5760   39.7110 C.3    88  HIS88       0.0771
     17  CG        15.1280    7.1510   40.1520 C.ar   88  HIS88       0.0820
     18  ND1       15.7370    6.1130   39.4810 N.ar   88  HIS88      -0.2267
     19  CD2       14.4380    6.5880   41.1710 C.ar   88  HIS88       0.1154
     20  CE1       15.4240    4.9700   40.0650 C.ar   88  HIS88       0.1986
     21  NE2       14.6360    5.2300   41.0930 N.ar   88  HIS88      -0.2212
     22  N         19.4870    4.7110   36.1370 N.3   167  GLU167     -0.1231
     23  CA        18.6790    3.5040   36.1890 C.3   167  GLU167      0.1699
     24  C         19.3200    2.2380   36.7570 C.2   167  GLU167      0.2592
     25  O         18.6450    1.4690   37.4420 O.2   167  GLU167     -0.2718
     26  CB        18.1510    3.2110   34.7690 C.3   167  GLU167      0.0402
     27  CG        17.3550    1.9060   34.5860 C.3   167  GLU167      0.1161
     28  CD        15.9400    1.9610   35.1660 C.2   167  GLU167      0.3649
     29  OE1       15.4570    3.0670   35.4950 O.co2 167  GLU167     -0.2457
     30  OE2       15.3020    0.8930   35.2800 O.co2 167  GLU167     -0.2457
     31  N         20.6040    2.0240   36.4770 N.am  168  GLU168     -0.1979
     32  CA        21.2890    0.7960   36.8970 C.3   168  GLU168      0.1602
     33  C         22.3110    0.8150   38.0420 C.2   168  GLU168      0.2287
     34  O         22.6950   -0.2500   38.5330 O.2   168  GLU168     -0.2864
     35  CB        21.9460    0.1430   35.6730 C.3   168  GLU168      0.0415
     36  CG        20.9950   -0.0920   34.4920 C.3   168  GLU168      0.1163
     37  CD        19.8520   -1.0430   34.8220 C.2   168  GLU168      0.3649
     38  OE1       19.8150   -1.5700   35.9530 O.co2 168  GLU168     -0.2457
     39  OE2       18.9920   -1.2690   33.9440 O.co2 168  GLU168     -0.2457
     40  N         20.2350    4.5470   41.0750 N.3   171  SER171     -0.1217
     41  CA        18.7870    4.6140   41.2700 C.3   171  SER171      0.1889
     42  C         18.4010    6.0390   41.6690 C.2   171  SER171      0.2288
     43  O         17.5410    6.2490   42.5220 O.2   171  SER171     -0.2866
     44  CB        18.3430    3.6460   42.3720 C.3   171  SER171      0.2089
     45  OG        18.6120    2.3030   42.0210 O.3   171  SER171     -0.2183
     46  N         22.8250   -6.1240   43.5210 N.3   319  PHE319     -0.1241
     47  CA        22.7100   -5.3570   42.2790 C.3   319  PHE319      0.1605
     48  C         23.9820   -4.5320   42.0970 C.2   319  PHE319      0.2264
     49  O         24.2930   -4.0710   41.0000 O.2   319  PHE319     -0.2867
     50  CB        21.4900   -4.4440   42.3200 C.3   319  PHE319      0.0534
     51  CG        20.2040   -5.1600   42.0490 C.ar  319  PHE319     -0.0203
     52  CD1       19.7830   -5.3860   40.7410 C.ar  319  PHE319     -0.0042
     53  CD2       19.4210   -5.6330   43.0970 C.ar  319  PHE319     -0.0042
     54  CE1       18.5980   -6.0740   40.4820 C.ar  319  PHE319     -0.0003
     55  CE2       18.2380   -6.3190   42.8470 C.ar  319  PHE319     -0.0003
     56  CZ        17.8250   -6.5400   41.5390 C.ar  319  PHE319     -0.0000
     57  N          8.0710  -12.4490   37.4230 N.3   509  TYR509     -0.1241
     58  CA         9.0790  -11.4280   37.1980 C.3   509  TYR509      0.1605
     59  C         10.3150  -12.2890   36.9550 C.2   509  TYR509      0.2264
     60  O         10.8240  -12.3610   35.8380 O.2   509  TYR509     -0.2867
     61  CB         9.2940  -10.5350   38.4210 C.3   509  TYR509      0.0534
     62  CG        10.3320   -9.4690   38.1390 C.ar  509  TYR509     -0.0201
     63  CD1       10.0770   -8.4480   37.2200 C.ar  509  TYR509     -0.0009
     64  CD2       11.5950   -9.5350   38.7170 C.ar  509  TYR509     -0.0009
     65  CE1       11.0600   -7.5210   36.8810 C.ar  509  TYR509      0.0417
     66  CE2       12.5890   -8.6200   38.3870 C.ar  509  TYR509      0.0417
     67  CZ        12.3200   -7.6150   37.4670 C.ar  509  TYR509      0.1957
     68  OH        13.3120   -6.7270   37.1210 O.3   509  TYR509     -0.2866
     69  N          8.1640   -6.3790   31.8880 N.3   592  SER592     -0.1202
     70  CA         9.5960   -6.1670   31.7350 C.3   592  SER592      0.2020
     71  C         10.3160   -7.5400   31.8670 C.2   592  SER592      0.2618
     72  O          9.8940   -8.4480   30.8740 O.2   592  SER592     -0.2717
     73  CB        10.0690   -5.1320   32.7680 C.3   592  SER592      0.2103
     74  OG        11.4430   -4.9350   32.5400 O.3   592  SER592     -0.2182
     75  N         11.1620   -7.8300   32.8550 N.am  593  TYR593     -0.1975
     76  CA        11.7980   -9.1520   32.9430 C.3   593  TYR593      0.1639
     77  C         10.7230  -10.2380   32.9620 C.2   593  TYR593      0.2290
     78  O         10.9090  -11.3250   32.4200 O.2   593  TYR593     -0.2864
     79  CB        12.6720   -9.2700   34.1980 C.3   593  TYR593      0.0560
     80  CG        13.7430  -10.3260   34.0720 C.ar  593  TYR593     -0.0198
     81  CD1       13.4230  -11.6840   34.0930 C.ar  593  TYR593     -0.0009
     82  CD2       15.0740   -9.9660   33.8510 C.ar  593  TYR593     -0.0009
     83  CE1       14.4100  -12.6660   33.8880 C.ar  593  TYR593      0.0417
     84  CE2       16.0680  -10.9350   33.6420 C.ar  593  TYR593      0.0417
     85  CZ        15.7270  -12.2800   33.6590 C.ar  593  TYR593      0.1957
     86  OH        16.6950  -13.2300   33.4210 O.3   593  TYR593     -0.2866
     87  N         11.6780   -7.9090   27.4180 N.3   618  VAL618     -0.1245
     88  CA        12.9860   -7.8850   26.7870 C.3   618  VAL618      0.1561
     89  C         12.8160   -9.0540   25.7960 C.2   618  VAL618      0.2260
     90  O         12.1210  -10.0200   26.1150 O.2   618  VAL618     -0.2867
     91  CB        14.0970   -8.2430   27.7900 C.3   618  VAL618      0.0252
     92  CG1       15.3880   -8.6140   27.0400 C.3   618  VAL618      0.0019
     93  CG2       14.3450   -7.0770   28.7200 C.3   618  VAL618      0.0019
     94  N         18.8670   -9.9050   24.7760 N.3   621  TRP621     -0.1241
     95  CA        19.7450   -9.1010   25.6050 C.3   621  TRP621      0.1605
     96  C         20.6680   -8.0760   24.9620 C.2   621  TRP621      0.2264
     97  O         21.1270   -7.1490   25.6420 O.2   621  TRP621     -0.2867
     98  CB        20.5180  -10.0270   26.5420 C.3   621  TRP621      0.0550
     99  CG        19.5890  -10.6840   27.4990 C.ar  621  TRP621      0.0003
    100  CD1       19.2330  -11.9980   27.5280 C.ar  621  TRP621      0.0946
    101  CD2       18.8220  -10.0350   28.5260 C.ar  621  TRP621      0.0152
    102  NE1       18.2880  -12.2120   28.5090 N.ar  621  TRP621     -0.2442
    103  CE2       18.0190  -11.0230   29.1360 C.ar  621  TRP621      0.0810
    104  CE3       18.7360   -8.7130   28.9870 C.ar  621  TRP621      0.0012
    105  CZ2       17.1370  -10.7310   30.1880 C.ar  621  TRP621      0.0191
    106  CZ3       17.8550   -8.4210   30.0400 C.ar  621  TRP621      0.0001
    107  CH2       17.0710   -9.4280   30.6250 C.ar  621  TRP621      0.0015
    108  N         19.0960   -4.6210   25.4600 N.3   624  TYR624     -0.1241
    109  CA        18.9810   -3.9700   26.7680 C.3   624  TYR624      0.1605
    110  C         20.2540   -3.2330   27.2050 C.2   624  TYR624      0.2264
    111  O         21.3130   -3.4140   26.6110 O.2   624  TYR624     -0.2867
    112  CB        18.5390   -4.9790   27.8350 C.3   624  TYR624      0.0534
    113  CG        17.9120   -4.2880   29.0180 C.ar  624  TYR624     -0.0201
    114  CD1       16.8890   -3.3670   28.8260 C.ar  624  TYR624     -0.0009
    115  CD2       18.4100   -4.4580   30.3090 C.ar  624  TYR624     -0.0009
    116  CE1       16.3880   -2.6150   29.8800 C.ar  624  TYR624      0.0417
    117  CE2       17.9090   -3.7090   31.3800 C.ar  624  TYR624      0.0417
    118  CZ        16.9030   -2.7840   31.1490 C.ar  624  TYR624      0.1957
    119  OH        16.4430   -1.9770   32.1550 O.3   624  TYR624     -0.2866
    120  N         23.1500   -3.4690   33.3470 N.3   628  TYR628     -0.1241
    121  CA        22.3200   -4.5600   33.8340 C.3   628  TYR628      0.1605
    122  C         22.6150   -5.8780   33.1120 C.2   628  TYR628      0.2264
    123  O         22.9780   -6.8770   33.7380 O.2   628  TYR628     -0.2867
    124  CB        20.8360   -4.2250   33.6670 C.3   628  TYR628      0.0534
    125  CG        19.9150   -5.3130   34.1700 C.ar  628  TYR628     -0.0201
    126  CD1       19.5440   -6.3860   33.3530 C.ar  628  TYR628     -0.0009
    127  CD2       19.4450   -5.2920   35.4830 C.ar  628  TYR628     -0.0009
    128  CE1       18.7210   -7.4140   33.8380 C.ar  628  TYR628      0.0417
    129  CE2       18.6270   -6.3090   35.9780 C.ar  628  TYR628      0.0417
    130  CZ        18.2660   -7.3640   35.1550 C.ar  628  TYR628      0.1957
    131  OH        17.4320   -8.3410   35.6600 O.3   628  TYR628     -0.2866
    132  N         26.0950   -7.4760   33.5940 N.3   631  ARG631     -0.1245
    133  CA        26.3250   -7.9130   34.9590 C.3   631  ARG631      0.1563
    134  C         26.0390   -9.4120   35.0930 C.2   631  ARG631      0.2260
    135  O         26.6890  -10.1150   35.8680 O.2   631  ARG631     -0.2867
    136  CB        25.4260   -7.1230   35.9070 C.3   631  ARG631      0.0307
    137  CG        25.6770   -7.3820   37.3810 C.3   631  ARG631      0.0489
    138  CD        25.2840   -6.1600   38.2100 C.3   631  ARG631      0.2205
    139  NE        23.8470   -5.9350   38.2280 N.pl3 631  ARG631     -0.0865
    140  CZ        23.2630   -4.7500   38.0830 C.cat 631  ARG631      0.5346
    141  NH1       23.9840   -3.6550   37.8990 N.pl3 631  ARG631      0.1354
    142  NH2       21.9450   -4.6660   38.1350 N.pl3 631  ARG631      0.1354
    143  N         13.2880    2.6190   28.4790 N.3   672  ASN672     -0.1225
    144  CA        14.0080    1.5820   29.2230 C.3   672  ASN672      0.1785
    145  C         14.0710    0.2780   28.4130 C.2   672  ASN672      0.2597
    146  O         15.1510   -0.1450   27.9810 O.2   672  ASN672     -0.2718
    147  CB        13.3070    1.3660   30.5610 C.3   672  ASN672      0.1169
    148  CG        14.0600    0.4400   31.4590 C.2   672  ASN672      0.2627
    149  OD1       15.0780   -0.1150   31.0630 O.2   672  ASN672     -0.2716
    150  ND2       13.5640    0.2550   32.6770 N.am  672  ASN672     -0.0877
    151  N         12.9250   -0.3760   28.2390 N.am  673  VAL673     -0.1980
    152  CA        12.8720   -1.5740   27.3990 C.3   673  VAL673      0.1595
    153  C         12.2520   -0.9950   26.1250 C.2   673  VAL673      0.2287
    154  O         11.0390   -0.8190   26.0330 O.2   673  VAL673     -0.2864
    155  CB        11.9560   -2.6870   27.9820 C.3   673  VAL673      0.0276
    156  CG1       11.8800   -3.8710   27.0050 C.3   673  VAL673      0.0022
    157  CG2       12.4970   -3.1640   29.3200 C.3   673  VAL673      0.0022
    158  N          7.8600    3.0030   30.1350 N.3   702  HIS702     -0.1241
    159  CA         7.9200    1.6910   30.7720 C.3   702  HIS702      0.1621
    160  C          6.8650    1.4020   31.8270 C.2   702  HIS702      0.2264
    161  O          6.5320    0.2390   32.0770 O.2   702  HIS702     -0.2867
    162  CB         9.2970    1.4600   31.3860 C.3   702  HIS702      0.0745
    163  CG         9.5690    0.0220   31.6920 C.ar  702  HIS702      0.0817
    164  ND1        9.6630   -0.9390   30.7060 N.ar  702  HIS702     -0.2268
    165  CD2        9.6990   -0.6330   32.8710 C.ar  702  HIS702      0.1154
    166  CE1        9.8360   -2.1220   31.2650 C.ar  702  HIS702      0.1986
    167  NE2        9.8610   -1.9640   32.5770 N.ar  702  HIS702     -0.2212
@<TRIPOS>BOND
     1    94    95    1
     2    96    95    1
     3    96    97    2
     4   108   109    1
     5    95    98    1
     6    89    90    2
     7    89    88    1
     8   154   153    2
     9   153   152    1
    10    98    99    1
    11   111   110    2
    12   109   110    1
    13   109   112    1
    14    88    87    1
    15    88    91    1
    16   156   155    1
    17    92    91    1
    18   152   155    1
    19   152   151    1
    20    99   100   ar
    21    99   101   ar
    22   100   102   ar
    23    91    93    1
    24   112   113    1
    25   146   145    2
    26   155   157    1
    27   151   145   am
    28   145   144    1
    29   143   144    1
    30   102   103   ar
    31   101   104   ar
    32   101   103   ar
    33   114   113   ar
    34   114   116   ar
    35   104   106   ar
    36   113   115   ar
    37   103   105   ar
    38   144   147    1
    39   116   118   ar
    40   106   107   ar
    41   158   159    1
    42   105   107   ar
    43   115   117   ar
    44   147   148    1
    45   164   166   ar
    46   164   163   ar
    47   159   162    1
    48   159   160    1
    49    72    71    2
    50   149   148    2
    51   118   117   ar
    52   118   119    1
    53   166   167   ar
    54   162   163    1
    55   148   150   am
    56   163   165   ar
    57    70    71    1
    58    70    69    1
    59    70    73    1
    60   160   161    2
    61    71    75   am
    62    78    77    2
    63    74    73    1
    64   167   165   ar
    65    75    76    1
    66    76    77    1
    67    76    79    1
    68   122   123    2
    69   122   121    1
    70   120   121    1
    71   126   128   ar
    72   126   125   ar
    73    86    85    1
    74   132   133    1
    75    84    85   ar
    76    84    82   ar
    77    85    83   ar
    78   124   121    1
    79   124   125    1
    80   128   130   ar
    81    82    80   ar
    82    83    81   ar
    83    39    37   ar
    84    80    81   ar
    85    80    79    1
    86   125   127   ar
    87    36    37    1
    88    36    35    1
    89    27    26    1
    90    27    28    1
    91    26    23    1
    92    37    38   ar
    93   133   134    1
    94   133   136    1
    95   134   135    2
    96   130   131    1
    97   130   129   ar
    98    28    30   ar
    99    28    29   ar
   100     1     2    1
   101   127   129   ar
   102    35    32    1
   103    60    59    2
   104   136   137    1
   105    11     9    1
   106    22    23    1
   107    23    24    1
   108    31    24   am
   109    31    32    1
   110     2     5    1
   111     2     3    1
   112    24    25    2
   113     5     6    1
   114    65    63   ar
   115    65    67   ar
   116    32    33    1
   117     9     8    2
   118     9    10    1
   119    59    58    1
   120    68    67    1
   121    58    57    1
   122    58    61    1
   123    63    62   ar
   124     8     7    1
   125   137   138    1
   126    67    66   ar
   127     3    12   am
   128     3     4    2
   129    12    13    1
   130     6     7    1
   131   141   140    1
   132    33    34    2
   133   140   142    1
   134   140   139    2
   135    62    61    1
   136    62    64   ar
   137   138   139    1
   138    66    64   ar
   139    14    13    1
   140    14    15    2
   141    13    16    1
   142    18    20   ar
   143    18    17   ar
   144    16    17    1
   145    20    21   ar
   146    17    19   ar
   147    54    52   ar
   148    54    56   ar
   149    52    51   ar
   150    49    48    2
   151    40    41    1
   152    21    19   ar
   153    41    42    1
   154    41    44    1
   155    56    55   ar
   156    42    43    2
   157    45    44    1
   158    51    50    1
   159    51    53   ar
   160    48    47    1
   161    47    50    1
   162    47    46    1
   163    55    53   ar
