@<TRIPOS>MOLECULE
tmp/2g5uB00.pdb
 77 70 0 0 0
SMALL
GASTEIGER

@<TRIPOS>ATOM
      1  N         19.5390   54.0780   32.6960 N.3     4  MET4       -0.1245
      2  CA        20.7740   53.3160   32.8330 C.3     4  MET4        0.1570
      3  C         21.2970   52.9440   31.4350 C.2     4  MET4        0.2261
      4  O         20.5100   52.7970   30.5110 O.2     4  MET4       -0.2867
      5  CB        20.5140   52.0390   33.6460 C.3     4  MET4        0.0387
      6  CG        21.8130   51.3420   34.1430 C.3     4  MET4        0.0595
      7  SD        22.2660   49.8700   33.1730 S.3     4  MET4       -0.1393
      8  CE        21.0810   48.6990   33.8370 C.3     4  MET4        0.0692
      9  N         23.9970   50.3450   29.2990 N.3     6  LYS6       -0.1245
     10  CA        24.8350   49.1560   29.3800 C.3     6  LYS6        0.1561
     11  C         25.4610   48.9430   28.0150 C.2     6  LYS6        0.2260
     12  O         24.7650   49.0720   26.9910 O.2     6  LYS6       -0.2867
     13  CB        24.0240   47.9240   29.7590 C.3     6  LYS6        0.0271
     14  CG        24.8970   46.6660   29.9340 C.3     6  LYS6        0.0035
     15  CD        24.0770   45.4970   30.4680 C.3     6  LYS6        0.0206
     16  CE        24.9360   44.2440   30.7490 C.3     6  LYS6        0.1093
     17  NZ        25.9040   44.3890   31.8840 N.3     6  LYS6       -0.1314
     18  N         28.1360   46.4870   25.6630 N.3     8  LEU8       -0.1245
     19  CA        28.7490   45.1720   25.5600 C.3     8  LEU8        0.1561
     20  C         29.6340   45.1470   24.3190 C.2     8  LEU8        0.2260
     21  O         29.3930   45.8660   23.3480 O.2     8  LEU8       -0.2867
     22  CB        27.6880   44.0830   25.4380 C.3     8  LEU8        0.0270
     23  CG        26.6840   43.8710   26.5810 C.3     8  LEU8        0.0019
     24  CD1       25.7640   42.7140   26.2200 C.3     8  LEU8        0.0001
     25  CD2       27.4270   43.5700   27.8660 C.3     8  LEU8        0.0001
     26  N         16.3760   51.4530   30.2050 N.3    94  THR94      -0.1218
     27  CA        17.6960   50.8600   30.0630 C.3    94  THR94       0.1862
     28  C         18.0370   50.9700   28.5880 C.2    94  THR94       0.2287
     29  O         17.3130   50.4440   27.7350 O.2    94  THR94      -0.2866
     30  CB        17.7270   49.4050   30.5290 C.3    94  THR94       0.1770
     31  OG1       17.5020   49.3880   31.9340 O.3    94  THR94      -0.2211
     32  CG2       19.0840   48.7770   30.2680 C.3    94  THR94       0.0375
     33  N         20.6740   49.8160   26.0030 N.3    96  ALA96      -0.1231
     34  CA        21.7870   48.8820   25.8430 C.3    96  ALA96       0.1694
     35  C         22.3930   49.0340   24.4430 C.2    96  ALA96       0.2592
     36  O         21.6750   49.2820   23.4880 O.2    96  ALA96      -0.2718
     37  CB        21.3300   47.4710   26.0560 C.3    96  ALA96       0.0304
     38  N         23.7050   48.9190   24.3530 N.am   97  ALA97      -0.1966
     39  CA        24.3960   48.9590   23.0610 C.3    97  ALA97       0.1728
     40  C         25.3230   47.7550   22.9710 C.2    97  ALA97       0.2616
     41  O         26.0400   47.4310   23.9250 O.2    97  ALA97      -0.2715
     42  CB        25.1710   50.2580   22.9040 C.3    97  ALA97       0.0334
     43  N         25.3030   47.0810   21.8310 N.am   98  LEU98      -0.1977
     44  CA        26.2010   45.9810   21.5610 C.3    98  LEU98       0.1596
     45  C         27.1350   46.4110   20.4400 C.2    98  LEU98       0.2287
     46  O         26.6740   46.7460   19.3440 O.2    98  LEU98      -0.2864
     47  CB        25.3690   44.7830   21.1100 C.3    98  LEU98       0.0297
     48  CG        26.1660   43.5440   20.6650 C.3    98  LEU98       0.0022
     49  CD1       27.0410   42.9740   21.7900 C.3    98  LEU98       0.0001
     50  CD2       25.1630   42.4930   20.1680 C.3    98  LEU98       0.0001
     51  N         24.3170   47.5430   17.6870 N.3   105  SER105     -0.1202
     52  CA        22.8930   47.4480   17.8280 C.3   105  SER105      0.2020
     53  C         22.5570   48.1330   19.1420 C.2   105  SER105      0.2619
     54  O         23.4020   48.2030   20.0780 O.2   105  SER105     -0.2717
     55  CB        22.4590   45.9780   17.8280 C.3   105  SER105      0.2103
     56  OG        22.9000   45.3000   16.6530 O.3   105  SER105     -0.2182
     57  N         21.3710   48.7030   19.2180 N.am  106  THR106     -0.1938
     58  CA        20.9590   49.2740   20.4710 C.3   106  THR106      0.2028
     59  C         19.5240   48.9080   20.6940 C.2   106  THR106      0.2642
     60  O         18.7330   48.8120   19.7240 O.2   106  THR106     -0.2714
     61  CB        21.1650   50.8100   20.5040 C.3   106  THR106      0.1808
     62  OG1       20.8450   51.3080   21.8000 O.3   106  THR106     -0.2208
     63  CG2       20.3470   51.5530   19.4440 C.3   106  THR106      0.0379
     64  N         19.1720   48.7390   21.9520 N.am  107  THR107     -0.1950
     65  CA        17.8190   48.3740   22.2910 C.3   107  THR107      0.1897
     66  C         17.4650   49.1600   23.5480 C.2   107  THR107      0.2313
     67  O         18.3630   49.5310   24.3300 O.2   107  THR107     -0.2863
     68  CB        17.5620   46.8510   22.4810 C.3   107  THR107      0.1794
     69  OG1       16.1430   46.6220   22.5720 O.3   107  THR107     -0.2208
     70  CG2       18.2350   46.3210   23.7290 C.3   107  THR107      0.0378
     71  N         15.0400   48.9790   26.9430 N.3   109  VAL109     -0.1245
     72  CA        14.1720   48.1550   27.7790 C.3   109  VAL109      0.1561
     73  C         13.4840   49.1810   28.6840 C.2   109  VAL109      0.2260
     74  O         14.1700   49.9360   29.3930 O.2   109  VAL109     -0.2867
     75  CB        14.9800   47.1140   28.5830 C.3   109  VAL109      0.0252
     76  CG1       14.0590   46.1870   29.3680 C.3   109  VAL109      0.0019
     77  CG2       15.9490   46.2950   27.6530 C.3   109  VAL109      0.0019
@<TRIPOS>BOND
     1    56    55    1
     2    51    52    1
     3    52    55    1
     4    52    53    1
     5    53    57   am
     6    53    54    2
     7    57    58    1
     8    46    45    2
     9    63    61    1
    10    60    59    2
    11    50    48    1
    12    45    44    1
    13    58    61    1
    14    58    59    1
    15    61    62    1
    16    48    47    1
    17    48    49    1
    18    59    64   am
    19    47    44    1
    20    44    43    1
    21    43    40   am
    22    64    65    1
    23    65    68    1
    24    65    66    1
    25    68    69    1
    26    68    70    1
    27    42    39    1
    28    40    39    1
    29    40    41    2
    30    39    38    1
    31    21    20    2
    32    36    35    2
    33    66    67    2
    34    20    19    1
    35    38    35   am
    36    35    34    1
    37    22    19    1
    38    22    23    1
    39    19    18    1
    40    34    33    1
    41    34    37    1
    42    24    23    1
    43    23    25    1
    44    71    72    1
    45    12    11    2
    46    77    75    1
    47    29    28    2
    48    72    75    1
    49    72    73    1
    50    11    10    1
    51    75    76    1
    52    28    27    1
    53    73    74    2
    54     9    10    1
    55    10    13    1
    56    13    14    1
    57    14    15    1
    58    27    26    1
    59    27    30    1
    60    32    30    1
    61    15    16    1
    62     4     3    2
    63    30    31    1
    64    16    17    1
    65     3     2    1
    66     1     2    1
    67     2     5    1
    68     7     8    1
    69     7     6    1
    70     5     6    1
