@<TRIPOS>MOLECULE
tmp/2g5vA00.pdb
 132 130 0 0 0
SMALL
GASTEIGER

@<TRIPOS>ATOM
      1  N          2.1990   43.5120    9.0670 N.3    40  HIS40      -0.1241
      2  CA         2.6900   44.8590    8.8220 C.3    40  HIS40       0.1621
      3  C          2.2420   45.8430    9.8970 C.2    40  HIS40       0.2264
      4  O          2.6530   47.0020    9.8980 O.2    40  HIS40      -0.2867
      5  CB         2.3280   45.3520    7.4050 C.3    40  HIS40       0.0745
      6  CG         0.9250   45.8490    7.2470 C.ar   40  HIS40       0.0817
      7  ND1       -0.0780   45.0870    6.6850 N.ar   40  HIS40      -0.2268
      8  CD2        0.3760   47.0590    7.5070 C.ar   40  HIS40       0.1154
      9  CE1       -1.1820   45.8080    6.6030 C.ar   40  HIS40       0.1986
     10  NE2       -0.9340   47.0080    7.0950 N.ar   40  HIS40      -0.2212
     11  N          4.5120   41.6380    1.2230 N.3    81  LEU81      -0.1245
     12  CA         3.4030   41.4390    2.1500 C.3    81  LEU81       0.1561
     13  C          2.8720   40.0030    2.1060 C.2    81  LEU81       0.2260
     14  O          1.7600   39.7270    2.5470 O.2    81  LEU81      -0.2867
     15  CB         2.2720   42.4430    1.8960 C.3    81  LEU81       0.0270
     16  CG         2.6190   43.9050    2.2060 C.3    81  LEU81       0.0019
     17  CD1        1.3470   44.7440    2.2390 C.3    81  LEU81       0.0001
     18  CD2        3.3300   43.9930    3.5510 C.3    81  LEU81       0.0001
     19  N        -14.3720   49.9800   -0.4300 N.3   171  ASP171     -0.1225
     20  CA       -13.1070   49.3050   -0.1570 C.3   171  ASP171      0.1805
     21  C        -12.6240   49.6040    1.2610 C.2   171  ASP171      0.2598
     22  O        -13.1170   50.5290    1.9110 O.2   171  ASP171     -0.2718
     23  CB       -12.0720   49.8130   -1.1680 C.3   171  ASP171      0.1424
     24  CG       -10.7870   49.0130   -1.1670 C.2   171  ASP171      0.3668
     25  OD1       -9.8190   49.4850   -1.8000 O.co2 171  ASP171     -0.2456
     26  OD2      -10.7390   47.9230   -0.5600 O.co2 171  ASP171     -0.2456
     27  N        -11.6740   48.8080    1.7470 N.am  172  SER172     -0.1938
     28  CA       -11.0970   49.0490    3.0650 C.3   172  SER172      0.2055
     29  C        -10.0000   50.0710    2.7790 C.2   172  SER172      0.2643
     30  O         -9.7280   50.3650    1.6150 O.2   172  SER172     -0.2714
     31  CB       -10.5160   47.7570    3.6630 C.3   172  SER172      0.2130
     32  OG        -9.5690   47.1470    2.8070 O.3   172  SER172     -0.2179
     33  N         -9.3630   50.6210    3.8070 N.am  173  CYS173     -0.1953
     34  CA        -8.3460   51.6310    3.5470 C.3   173  CYS173      0.1843
     35  C         -7.3360   51.7950    4.6770 C.2   173  CYS173      0.2625
     36  O         -7.2670   50.9680    5.5870 O.2   173  CYS173     -0.2714
     37  CB        -9.0390   52.9700    3.2680 C.3   173  CYS173      0.0997
     38  SG        -7.9960   54.2610    2.5180 S.3   173  CYS173     -0.0797
     39  N         -6.5510   52.8680    4.5930 N.am  174  GLN174     -0.1977
     40  CA        -5.5370   53.1880    5.5920 C.3   174  GLN174      0.1601
     41  C         -6.1820   53.2590    6.9660 C.2   174  GLN174      0.2287
     42  O         -7.0880   54.0590    7.1920 O.2   174  GLN174     -0.2864
     43  CB        -4.8880   54.5400    5.2750 C.3   174  GLN174      0.0394
     44  CG        -4.1850   54.5990    3.9320 C.3   174  GLN174      0.0908
     45  CD        -2.9370   53.7410    3.8910 C.2   174  GLN174      0.2608
     46  OE1       -1.9340   54.0500    4.5370 O.2   174  GLN174     -0.2717
     47  NE2       -2.9970   52.6520    3.1370 N.am  174  GLN174     -0.0878
     48  N         -6.1070   48.2490    8.2690 N.3   177  SER177     -0.1217
     49  CA        -5.1090   47.1810    8.2660 C.3   177  SER177      0.1889
     50  C         -5.1590   46.3150    9.5130 C.2   177  SER177      0.2288
     51  O         -5.2540   46.8260   10.6300 O.2   177  SER177     -0.2866
     52  CB        -3.6990   47.7630    8.1490 C.3   177  SER177      0.2089
     53  OG        -3.4930   48.3880    6.8990 O.3   177  SER177     -0.2183
     54  N         -7.3210   42.5490    6.6620 N.3   191  VAL191     -0.1231
     55  CA        -7.0550   43.7140    5.8140 C.3   191  VAL191      0.1692
     56  C         -5.5360   43.8270    5.6540 C.2   191  VAL191      0.2593
     57  O         -4.8120   44.0520    6.6290 O.2   191  VAL191     -0.2718
     58  CB        -7.6270   45.0060    6.4440 C.3   191  VAL191      0.0266
     59  CG1       -7.3170   46.2090    5.5560 C.3   191  VAL191      0.0020
     60  CG2       -9.1310   44.8700    6.6210 C.3   191  VAL191      0.0020
     61  N         -5.0590   43.6730    4.4220 N.am  192  SER192     -0.1938
     62  CA        -3.6260   43.6880    4.1560 C.3   192  SER192      0.2055
     63  C         -3.1060   44.8480    3.3110 C.2   192  SER192      0.2643
     64  O         -2.3050   45.6520    3.7900 O.2   192  SER192     -0.2714
     65  CB        -3.2340   42.3530    3.5150 C.3   192  SER192      0.2130
     66  OG        -1.8300   42.2340    3.3640 O.3   192  SER192     -0.2179
     67  N         -3.5330   44.9300    2.0550 N.am  193  TRP193     -0.1959
     68  CA        -3.0810   46.0150    1.1960 C.3   193  TRP193      0.1771
     69  C         -3.9980   46.2690    0.0090 C.2   193  TRP193      0.2620
     70  O         -5.1090   45.7460   -0.0580 O.2   193  TRP193     -0.2715
     71  CB        -1.6470   45.7640    0.7000 C.3   193  TRP193      0.0590
     72  CG        -1.4440   44.5240   -0.1380 C.ar  193  TRP193      0.0006
     73  CD1       -1.3110   43.2380    0.3100 C.ar  193  TRP193      0.0946
     74  CD2       -1.3090   44.4650   -1.5650 C.ar  193  TRP193      0.0152
     75  NE1       -1.0950   42.3880   -0.7480 N.ar  193  TRP193     -0.2442
     76  CE2       -1.0900   43.1160   -1.9090 C.ar  193  TRP193      0.0810
     77  CE3       -1.3490   45.4230   -2.5850 C.ar  193  TRP193      0.0012
     78  CZ2       -0.9110   42.6990   -3.2300 C.ar  193  TRP193      0.0191
     79  CZ3       -1.1720   45.0070   -3.8990 C.ar  193  TRP193      0.0001
     80  CH2       -0.9560   43.6570   -4.2060 C.ar  193  TRP193      0.0015
     81  N         -3.5210   47.0940   -0.9190 N.am  194  GLY194     -0.1940
     82  CA        -4.2870   47.4310   -2.1050 C.3   194  GLY194      0.2014
     83  C         -3.6690   48.6470   -2.7700 C.2   194  GLY194      0.2640
     84  O         -2.6470   49.1520   -2.3110 O.2   194  GLY194     -0.2714
     85  N         -4.2750   49.1120   -3.8560 N.am  195  SER195     -0.1935
     86  CA        -3.7760   50.2840   -4.5690 C.3   195  SER195      0.2055
     87  C         -4.7050   51.4440   -4.2500 C.2   195  SER195      0.2644
     88  O         -5.8560   51.4600   -4.6840 O.2   195  SER195     -0.2714
     89  CB        -3.7690   50.0310   -6.0770 C.3   195  SER195      0.2130
     90  OG        -3.2260   51.1390   -6.7750 O.3   195  SER195     -0.2179
     91  N         -4.2050   52.4180   -3.4990 N.am  196  GLY196     -0.1939
     92  CA        -5.0440   53.5390   -3.1300 C.3   196  GLY196      0.2014
     93  C         -6.2160   52.9850   -2.3460 C.2   196  GLY196      0.2639
     94  O         -6.0700   51.9890   -1.6380 O.2   196  GLY196     -0.2714
     95  N         -7.3780   53.6150   -2.4720 N.am  197  CYS197     -0.1967
     96  CA        -8.5660   53.1580   -1.7660 C.3   197  CYS197      0.1712
     97  C         -9.8290   53.3850   -2.5850 C.2   197  CYS197      0.2296
     98  O        -10.1250   54.5090   -2.9940 O.2   197  CYS197     -0.2864
     99  CB        -8.6870   53.8710   -0.4170 C.3   197  CYS197      0.0983
    100  SG        -7.3880   53.4170    0.7760 S.3   197  CYS197     -0.0798
    101  N         -9.1610   48.2060   -8.7890 N.3   202  LYS202     -0.1245
    102  CA        -8.1080   48.0110   -7.7970 C.3   202  LYS202      0.1561
    103  C         -8.7520   47.6330   -6.4690 C.2   202  LYS202      0.2260
    104  O         -8.8210   48.4400   -5.5450 O.2   202  LYS202     -0.2867
    105  CB        -7.2860   49.2910   -7.6290 C.3   202  LYS202      0.0271
    106  CG        -6.5670   49.7340   -8.8950 C.3   202  LYS202      0.0035
    107  CD        -5.6520   48.6360   -9.4170 C.3   202  LYS202      0.0206
    108  CE        -4.9400   49.0640  -10.6890 C.3   202  LYS202      0.1093
    109  NZ        -4.0980   47.9680  -11.2440 N.3   202  LYS202     -0.1314
    110  N         -9.4850   45.5250   -2.7970 N.3   204  GLY204     -0.1210
    111  CA        -8.6580   45.3160   -1.6260 C.3   204  GLY204      0.1956
    112  C         -8.0480   43.9300   -1.6360 C.2   204  GLY204      0.2612
    113  O         -8.6380   42.9860   -2.1730 O.2   204  GLY204     -0.2717
    114  N         -6.8550   43.8160   -1.0590 N.am  205  VAL205     -0.1965
    115  CA        -6.1510   42.5440   -0.9770 C.3   205  VAL205      0.1727
    116  C         -6.1340   42.1310    0.4910 C.2   205  VAL205      0.2616
    117  O         -5.8260   42.9350    1.3760 O.2   205  VAL205     -0.2715
    118  CB        -4.7140   42.6580   -1.5200 C.3   205  VAL205      0.0290
    119  CG1       -4.0620   41.2860   -1.5520 C.3   205  VAL205      0.0023
    120  CG2       -4.7410   43.2630   -2.9250 C.3   205  VAL205      0.0023
    121  N         -6.4570   40.8670    0.7400 N.am  206  TYR206     -0.1974
    122  CA        -6.5570   40.3510    2.0950 C.3   206  TYR206      0.1639
    123  C         -5.7630   39.0810    2.3320 C.2   206  TYR206      0.2290
    124  O         -5.6320   38.2420    1.4400 O.2   206  TYR206     -0.2864
    125  CB        -8.0350   40.0960    2.3960 C.3   206  TYR206      0.0560
    126  CG        -8.8790   41.3300    2.2110 C.ar  206  TYR206     -0.0198
    127  CD1       -9.0480   42.2320    3.2510 C.ar  206  TYR206     -0.0009
    128  CD2       -9.4550   41.6320    0.9820 C.ar  206  TYR206     -0.0009
    129  CE1       -9.7620   43.3970    3.0790 C.ar  206  TYR206      0.0417
    130  CE2      -10.1740   42.8070    0.7980 C.ar  206  TYR206      0.0417
    131  CZ       -10.3220   43.6840    1.8550 C.ar  206  TYR206      0.1957
    132  OH       -11.0230   44.8600    1.7050 O.3   206  TYR206     -0.2866
@<TRIPOS>BOND
     1   109   108    1
     2   108   107    1
     3   107   106    1
     4   106   105    1
     5   101   102    1
     6   102   105    1
     7   102   103    1
     8    90    89    1
     9   103   104    2
    10    89    86    1
    11    88    87    2
    12    86    87    1
    13    86    85    1
    14    87    91   am
    15    80    79   ar
    16    80    78   ar
    17    79    77   ar
    18    85    83   am
    19    91    92    1
    20    78    76   ar
    21    92    93    1
    22    98    97    2
    23   120   118    1
    24   110   111    1
    25    83    84    2
    26    83    82    1
    27    97    96    1
    28    77    74   ar
    29    95    93   am
    30    95    96    1
    31    93    94    2
    32   113   112    2
    33    82    81    1
    34    76    74   ar
    35    76    75   ar
    36    25    24   ar
    37    96    99    1
    38   112   111    1
    39   112   114   am
    40    74    72   ar
    41   119   118    1
    42   118   115    1
    43    23    24    1
    44    23    20    1
    45    24    26   ar
    46   114   115    1
    47   115   116    1
    48    81    69   am
    49    75    73   ar
    50    19    20    1
    51    99   100    1
    52    20    21    1
    53    72    73   ar
    54    72    71    1
    55    70    69    2
    56    69    68    1
    57   116   121   am
    58   116   117    2
    59    71    68    1
    60   121   122    1
    61   100    38    1
    62   130   128   ar
    63   130   131   ar
    64   128   126   ar
    65    68    67    1
    66    11    12    1
    67    21    27   am
    68    21    22    2
    69   124   123    2
    70    30    29    2
    71   132   131    1
    72    27    28    1
    73   131   129   ar
    74    15    12    1
    75    15    16    1
    76    67    63   am
    77   122   123    1
    78   122   125    1
    79    13    12    1
    80    13    14    2
    81    16    17    1
    82    16    18    1
    83   126   125    1
    84   126   127   ar
    85    38    37    1
    86    29    28    1
    87    29    33   am
    88    32    31    1
    89    28    31    1
    90   129   127   ar
    91    47    45   am
    92    37    34    1
    93    63    64    2
    94    63    62    1
    95    66    65    1
    96    65    62    1
    97    34    33    1
    98    34    35    1
    99    45    44    1
   100    45    46    2
   101    44    43    1
   102    62    61    1
   103    61    56   am
   104    39    35   am
   105    39    40    1
   106    35    36    2
   107    43    40    1
   108    59    58    1
   109    40    41    1
   110    56    55    1
   111    56    57    2
   112    55    58    1
   113    55    54    1
   114    58    60    1
   115     9     7   ar
   116     9    10   ar
   117     7     6   ar
   118    53    52    1
   119    41    42    2
   120    10     8   ar
   121     6     5    1
   122     6     8   ar
   123     5     2    1
   124    52    49    1
   125    49    48    1
   126    49    50    1
   127     2     1    1
   128     2     3    1
   129    50    51    2
   130     3     4    2
