@<TRIPOS>MOLECULE
tmp/2g5wB01.pdb
 198 195 0 0 0
SMALL
GASTEIGER

@<TRIPOS>ATOM
      1  N         70.6740   10.6050   51.4630 N.3    24  MET24      -0.1230
      2  CA        71.7050    9.6940   50.9520 C.3    24  MET24       0.1702
      3  C         71.3740    8.2100   50.9990 C.2    24  MET24       0.2593
      4  O         71.2400    7.6240   52.0740 O.2    24  MET24      -0.2718
      5  CB        73.0440    9.9330   51.6480 C.3    24  MET24       0.0401
      6  CG        73.8330   11.0900   51.0830 C.3    24  MET24       0.0596
      7  SD        75.3600   11.3440   51.9830 S.3    24  MET24      -0.1393
      8  CE        74.7330   11.6760   53.6400 C.3    24  MET24       0.0692
      9  N         71.2720    7.6180   49.8130 N.am   25  THR25      -0.1953
     10  CA        71.1530    6.1790   49.6380 C.3    25  THR25       0.1897
     11  C         72.3550    5.4580   50.2530 C.2    25  THR25       0.2313
     12  O         73.5070    5.7300   49.9040 O.2    25  THR25      -0.2863
     13  CB        71.0310    5.8320   48.1400 C.3    25  THR25       0.1794
     14  OG1       69.7390    6.2310   47.6740 O.3    25  THR25      -0.2208
     15  CG2       71.2100    4.3450   47.8950 C.3    25  THR25       0.0378
     16  N         68.6160    0.6760   43.1130 N.3    66  PHE66      -0.1241
     17  CA        69.6600    0.3740   44.0820 C.3    66  PHE66       0.1605
     18  C         69.1110   -0.6970   45.0210 C.2    66  PHE66       0.2264
     19  O         67.9160   -0.6730   45.3450 O.2    66  PHE66      -0.2867
     20  CB        70.0110    1.6180   44.9000 C.3    66  PHE66       0.0534
     21  CG        71.0990    2.4790   44.2970 C.ar   66  PHE66      -0.0203
     22  CD1       72.4420    2.2500   44.6100 C.ar   66  PHE66      -0.0042
     23  CD2       70.7810    3.5460   43.4560 C.ar   66  PHE66      -0.0042
     24  CE1       73.4520    3.0550   44.0730 C.ar   66  PHE66      -0.0003
     25  CE2       71.7890    4.3590   42.9180 C.ar   66  PHE66      -0.0003
     26  CZ        73.1240    4.1110   43.2270 C.ar   66  PHE66      -0.0000
     27  N         61.3460    8.7910   45.9900 N.3   100  TRP100     -0.1241
     28  CA        62.3190    8.5700   44.9120 C.3   100  TRP100      0.1605
     29  C         61.8900    7.5460   43.8570 C.2   100  TRP100      0.2264
     30  O         61.7220    6.3630   44.1610 O.2   100  TRP100     -0.2867
     31  CB        63.6550    8.1420   45.5290 C.3   100  TRP100      0.0550
     32  CG        64.8220    8.0570   44.5850 C.ar  100  TRP100      0.0003
     33  CD1       65.0030    8.7600   43.4250 C.ar  100  TRP100      0.0946
     34  CD2       65.9970    7.2480   44.7490 C.ar  100  TRP100      0.0152
     35  NE1       66.2090    8.4240   42.8500 N.ar  100  TRP100     -0.2442
     36  CE2       66.8380    7.5000   43.6430 C.ar  100  TRP100      0.0810
     37  CE3       66.4170    6.3310   45.7210 C.ar  100  TRP100      0.0012
     38  CZ2       68.0730    6.8720   43.4840 C.ar  100  TRP100      0.0191
     39  CZ3       67.6440    5.7060   45.5620 C.ar  100  TRP100      0.0001
     40  CH2       68.4590    5.9810   44.4530 C.ar  100  TRP100      0.0015
     41  N         77.9060    5.0440   32.8640 N.3   130  TRP130     -0.1241
     42  CA        77.1170    4.6480   34.0210 C.3   130  TRP130      0.1605
     43  C         76.8120    3.1590   34.1260 C.2   130  TRP130      0.2264
     44  O         76.6570    2.4630   33.1180 O.2   130  TRP130     -0.2867
     45  CB        75.8340    5.4840   34.0500 C.3   130  TRP130      0.0550
     46  CG        76.1100    6.9430   33.7940 C.ar  130  TRP130      0.0003
     47  CD1       75.9330    7.6220   32.6200 C.ar  130  TRP130      0.0946
     48  CD2       76.6530    7.8860   34.7240 C.ar  130  TRP130      0.0152
     49  NE1       76.3130    8.9310   32.7680 N.ar  130  TRP130     -0.2442
     50  CE2       76.7620    9.1220   34.0490 C.ar  130  TRP130      0.0810
     51  CE3       77.0530    7.8080   36.0670 C.ar  130  TRP130      0.0012
     52  CZ2       77.2550   10.2760   34.6700 C.ar  130  TRP130      0.0191
     53  CZ3       77.5420    8.9520   36.6850 C.ar  130  TRP130      0.0001
     54  CH2       77.6380   10.1720   35.9850 C.ar  130  TRP130      0.0015
     55  N         62.1180   13.8330   45.1750 N.3   178  HIS178     -0.1241
     56  CA        63.3790   13.7040   44.4540 C.3   178  HIS178      0.1621
     57  C         63.1160   13.9130   42.9650 C.2   178  HIS178      0.2264
     58  O         62.7050   12.9830   42.2600 O.2   178  HIS178     -0.2867
     59  CB        64.0370   12.3390   44.6970 C.3   178  HIS178      0.0745
     60  CG        65.4720   12.2690   44.2650 C.ar  178  HIS178      0.0817
     61  ND1       65.9770   13.0130   43.2180 N.ar  178  HIS178     -0.2268
     62  CD2       66.5040   11.5230   44.7260 C.ar  178  HIS178      0.1154
     63  CE1       67.2600   12.7420   43.0650 C.ar  178  HIS178      0.1986
     64  NE2       67.6050   11.8400   43.9660 N.ar  178  HIS178     -0.2212
     65  N         69.0580   14.6680   39.5030 N.3   181  HIS181     -0.1241
     66  CA        70.1370   13.6920   39.3000 C.3   181  HIS181      0.1621
     67  C         69.8820   12.6660   38.1960 C.2   181  HIS181      0.2264
     68  O         70.5050   11.6070   38.1790 O.2   181  HIS181     -0.2867
     69  CB        70.5050   12.9920   40.6190 C.3   181  HIS181      0.0745
     70  CG        70.8670   13.9310   41.7290 C.ar  181  HIS181      0.0817
     71  ND1       70.4480   13.7410   43.0290 N.ar  181  HIS181     -0.2268
     72  CD2       71.6040   15.0670   41.7350 C.ar  181  HIS181      0.1154
     73  CE1       70.9160   14.7170   43.7880 C.ar  181  HIS181      0.1986
     74  NE2       71.6180   15.5360   43.0260 N.ar  181  HIS181     -0.2212
     75  N         66.9960   11.0670   37.4230 N.3   183  TYR183     -0.1241
     76  CA        65.9710   10.0660   37.7180 C.3   183  TYR183      0.1605
     77  C         64.6230   10.4890   37.1380 C.2   183  TYR183      0.2264
     78  O         64.5140   11.5980   36.6230 O.2   183  TYR183     -0.2867
     79  CB        65.9140    9.7920   39.2250 C.3   183  TYR183      0.0534
     80  CG        67.2410    9.2930   39.7530 C.ar  183  TYR183     -0.0201
     81  CD1       67.7030    8.0210   39.4310 C.ar  183  TYR183     -0.0009
     82  CD2       68.0460   10.0990   40.5440 C.ar  183  TYR183     -0.0009
     83  CE1       68.9170    7.5560   39.8970 C.ar  183  TYR183      0.0417
     84  CE2       69.2680    9.6450   41.0190 C.ar  183  TYR183      0.0417
     85  CZ        69.7020    8.3720   40.6880 C.ar  183  TYR183      0.1957
     86  OH        70.9190    7.9120   41.1500 O.3   183  TYR183     -0.2866
     87  N         63.4080   18.8790   45.4920 N.3   230  ARG230     -0.1245
     88  CA        64.8210   18.8650   45.0760 C.3   230  ARG230      0.1563
     89  C         65.0150   18.7460   43.5540 C.2   230  ARG230      0.2260
     90  O         64.4770   17.8330   42.9310 O.2   230  ARG230     -0.2867
     91  CB        65.5880   17.7420   45.7780 C.3   230  ARG230      0.0307
     92  CG        67.0960   17.9180   45.7090 C.3   230  ARG230      0.0489
     93  CD        67.8670   16.8530   46.4650 C.3   230  ARG230      0.2205
     94  NE        69.1100   17.4100   46.9920 N.pl3 230  ARG230     -0.0865
     95  CZ        70.2100   16.7110   47.2690 C.cat 230  ARG230      0.5346
     96  NH1       70.2560   15.4010   47.0570 N.pl3 230  ARG230      0.1354
     97  NH2       71.2800   17.3320   47.7520 N.pl3 230  ARG230      0.1354
     98  N         73.2220   19.4980   36.8530 N.3   235  ILE235     -0.1245
     99  CA        73.9530   18.2600   37.0800 C.3   235  ILE235      0.1561
    100  C         73.5880   17.2770   35.9730 C.2   235  ILE235      0.2260
    101  O         72.4060   16.9860   35.7580 O.2   235  ILE235     -0.2867
    102  CB        73.6840   17.6820   38.5000 C.3   235  ILE235      0.0252
    103  CG1       74.4270   18.5190   39.5530 C.3   235  ILE235      0.0019
    104  CG2       74.1060   16.2240   38.5880 C.3   235  ILE235      0.0019
    105  CD1       74.0030   18.2680   40.9920 C.3   235  ILE235      0.0001
    106  N         74.4910   14.1090   35.7540 N.3   237  HIS237     -0.1241
    107  CA        74.4440   12.7380   36.2660 C.3   237  HIS237      0.1621
    108  C         73.4720   11.8770   35.4620 C.2   237  HIS237      0.2264
    109  O         72.3210   12.2660   35.2410 O.2   237  HIS237     -0.2867
    110  CB        74.0360   12.7570   37.7470 C.3   237  HIS237      0.0745
    111  CG        74.1550   11.4330   38.4360 C.ar  237  HIS237      0.0817
    112  ND1       73.0590   10.6850   38.8030 N.ar  237  HIS237     -0.2268
    113  CD2       75.2410   10.7290   38.8360 C.ar  237  HIS237      0.1154
    114  CE1       73.4630    9.5750   39.3970 C.ar  237  HIS237      0.1986
    115  NE2       74.7830    9.5760   39.4270 N.ar  237  HIS237     -0.2212
    116  N         70.7470   21.1460   44.1170 N.3   273  THR273     -0.1203
    117  CA        72.1260   20.6420   44.1470 C.3   273  THR273      0.1994
    118  C         72.9120   21.2280   42.9770 C.2   273  THR273      0.2618
    119  O         72.4390   21.2330   41.8370 O.2   273  THR273     -0.2717
    120  CB        72.2190   19.0950   44.0570 C.3   273  THR273      0.1784
    121  OG1       71.0820   18.4820   44.6630 O.3   273  THR273     -0.2211
    122  CG2       73.4800   18.5910   44.7410 C.3   273  THR273      0.0376
    123  N         74.1200   21.7030   43.2650 N.am  274  GLN274     -0.1965
    124  CA        74.9780   22.3090   42.2490 C.3   274  GLN274      0.1718
    125  C         76.2010   21.4490   41.9250 C.2   274  GLN274      0.2458
    126  O         76.7330   20.7690   42.8090 O.2   274  GLN274     -0.2730
    127  CB        75.4220   23.7020   42.6910 C.3   274  GLN274      0.0407
    128  CG        76.2360   23.7210   43.9740 C.3   274  GLN274      0.0908
    129  CD        76.8860   25.0570   44.2140 C.2   274  GLN274      0.2608
    130  OE1       76.6780   25.6770   45.2530 O.2   274  GLN274     -0.2717
    131  NE2       77.6710   25.5200   43.2460 N.am  274  GLN274     -0.0878
    132  N         76.6510   21.4780   40.6540 N.am  275  PRO275     -0.2716
    133  CA        77.8760   20.7680   40.2880 C.3   275  PRO275      0.1536
    134  C         79.1190   21.5200   40.7660 C.2   275  PRO275      0.2598
    135  O         79.0520   22.7240   41.0390 O.2   275  PRO275     -0.2715
    136  CB        77.8200   20.7410   38.7570 C.3   275  PRO275      0.0310
    137  CG        77.0400   21.9460   38.3890 C.3   275  PRO275      0.0237
    138  CD        76.0420   22.1630   39.4960 C.3   275  PRO275      0.0939
    139  N         80.2350   20.8030   40.8790 N.am  276  ARG276     -0.1978
    140  CA        81.5200   21.4010   41.2380 C.3   276  ARG276      0.1597
    141  C         82.5680   20.9290   40.2460 C.2   276  ARG276      0.2287
    142  O         82.7130   19.7250   40.0100 O.2   276  ARG276     -0.2864
    143  CB        81.9340   21.0090   42.6620 C.3   276  ARG276      0.0334
    144  CG        80.9950   21.4910   43.7620 C.3   276  ARG276      0.0492
    145  CD        81.3040   22.9200   44.1810 C.3   276  ARG276      0.2205
    146  NE        80.3960   23.3960   45.2230 N.pl3 276  ARG276     -0.0865
    147  CZ        80.4250   24.6170   45.7520 C.cat 276  ARG276      0.5346
    148  NH1       81.3240   25.5040   45.3460 N.pl3 276  ARG276      0.1354
    149  NH2       79.5540   24.9550   46.6920 N.pl3 276  ARG276      0.1354
    150  N         75.8150   20.5040   47.4950 N.3   302  GLY302     -0.1225
    151  CA        76.7880   20.0820   46.4850 C.3   302  GLY302      0.1811
    152  C         78.1750   20.6690   46.6630 C.2   302  GLY302      0.2280
    153  O         78.4240   21.8230   46.3090 O.2   302  GLY302     -0.2866
    154  N         78.5700   13.7890   51.8780 N.3   325  ARG325     -0.1245
    155  CA        79.7480   13.0120   52.2700 C.3   325  ARG325      0.1563
    156  C         80.2530   13.2780   53.6910 C.2   325  ARG325      0.2260
    157  O         80.5350   12.3400   54.4370 O.2   325  ARG325     -0.2867
    158  CB        80.8860   13.2000   51.2670 C.3   325  ARG325      0.0307
    159  CG        80.8660   12.1920   50.1350 C.3   325  ARG325      0.0489
    160  CD        80.4890   12.8200   48.8030 C.3   325  ARG325      0.2205
    161  NE        81.6600   13.3190   48.0840 N.pl3 325  ARG325     -0.0865
    162  CZ        81.8570   14.5900   47.7420 C.cat 325  ARG325      0.5346
    163  NH1       80.9580   15.5120   48.0360 N.pl3 325  ARG325      0.1354
    164  NH2       82.9520   14.9370   47.0850 N.pl3 325  ARG325      0.1354
    165  N         84.7060    5.5560   50.8440 N.3   348  ARG348     -0.1245
    166  CA        83.8120    5.3320   49.6940 C.3   348  ARG348      0.1563
    167  C         83.3660    3.8810   49.5160 C.2   348  ARG348      0.2260
    168  O         82.3820    3.6130   48.8260 O.2   348  ARG348     -0.2867
    169  CB        84.4700    5.8110   48.3960 C.3   348  ARG348      0.0307
    170  CG        84.2480    7.2800   48.0800 C.3   348  ARG348      0.0489
    171  CD        84.9890    7.7000   46.8060 C.3   348  ARG348      0.2205
    172  NE        85.0070    9.1570   46.6370 N.pl3 348  ARG348     -0.0865
    173  CZ        85.8000    9.8170   45.7920 C.cat 348  ARG348      0.5346
    174  NH1       86.6630    9.1610   45.0210 N.pl3 348  ARG348      0.1354
    175  NH2       85.7320   11.1430   45.7210 N.pl3 348  ARG348      0.1354
    176  N         79.9700    2.7710   51.3880 N.3   351  PHE351     -0.1227
    177  CA        78.8550    3.6250   51.0000 C.3   351  PHE351      0.1736
    178  C         77.5830    2.8200   50.7590 C.2   351  PHE351      0.2595
    179  O         76.5060    3.1950   51.2250 O.2   351  PHE351     -0.2718
    180  CB        79.2190    4.4050   49.7330 C.3   351  PHE351      0.0547
    181  CG        79.8430    5.7530   49.9920 C.ar  351  PHE351     -0.0202
    182  CD1       80.4800    6.0370   51.2000 C.ar  351  PHE351     -0.0042
    183  CD2       79.8170    6.7340   49.0080 C.ar  351  PHE351     -0.0042
    184  CE1       81.0570    7.2840   51.4280 C.ar  351  PHE351     -0.0003
    185  CE2       80.3940    7.9830   49.2240 C.ar  351  PHE351     -0.0003
    186  CZ        81.0130    8.2590   50.4340 C.ar  351  PHE351     -0.0000
    187  N         77.7230    1.7100   50.0390 N.am  352  TYR352     -0.1976
    188  CA        76.5790    0.9280   49.5780 C.3   352  TYR352      0.1639
    189  C         76.5690   -0.5220   50.0650 C.2   352  TYR352      0.2290
    190  O         75.7760   -1.3330   49.5810 O.2   352  TYR352     -0.2864
    191  CB        76.5030    0.9770   48.0500 C.3   352  TYR352      0.0560
    192  CG        76.4230    2.3840   47.5030 C.ar  352  TYR352     -0.0198
    193  CD1       75.2420    3.1190   47.5990 C.ar  352  TYR352     -0.0009
    194  CD2       77.5270    2.9840   46.9020 C.ar  352  TYR352     -0.0009
    195  CE1       75.1570    4.4090   47.1070 C.ar  352  TYR352      0.0417
    196  CE2       77.4510    4.2780   46.4030 C.ar  352  TYR352      0.0417
    197  CZ        76.2600    4.9810   46.5100 C.ar  352  TYR352      0.1957
    198  OH        76.1620    6.2600   46.0210 O.3   352  TYR352     -0.2866
@<TRIPOS>BOND
     1    47    49   ar
     2    47    46   ar
     3    49    50   ar
     4    41    42    1
     5    44    43    2
     6    46    45    1
     7    46    48   ar
     8    42    45    1
     9    42    43    1
    10    50    52   ar
    11    50    48   ar
    12    52    54   ar
    13    48    51   ar
    14   109   108    2
    15   108   107    1
    16   106   107    1
    17   101   100    2
    18   100    99    1
    19    54    53   ar
    20    51    53   ar
    21   107   110    1
    22    78    77    2
    23    98    99    1
    24    99   102    1
    25    77    76    1
    26    75    76    1
    27    76    79    1
    28   110   111    1
    29    68    67    2
    30    67    66    1
    31   137   136    1
    32   137   138    1
    33   111   112   ar
    34   111   113   ar
    35   102   104    1
    36   102   103    1
    37   136   133    1
    38   112   114   ar
    39   113   115   ar
    40    79    80    1
    41    66    65    1
    42    66    69    1
    43   114   115   ar
    44    81    80   ar
    45    81    83   ar
    46   138   132    1
    47   103   105    1
    48    80    82   ar
    49    83    85   ar
    50   142   141    2
    51   141   140    1
    52   133   132    1
    53   133   134    1
    54    82    84   ar
    55    69    70    1
    56   132   125   am
    57    85    84   ar
    58    85    86    1
    59   134   139   am
    60   134   135    2
    61   139   140    1
    62   140   143    1
    63    70    72   ar
    64    70    71   ar
    65    72    74   ar
    66   119   118    2
    67   125   124    1
    68   125   126    2
    69   124   127    1
    70   124   123    1
    71    58    57    2
    72   143   144    1
    73   127   128    1
    74    35    33   ar
    75    35    36   ar
    76    25    26   ar
    77    25    23   ar
    78    90    89    2
    79    57    56    1
    80   118   123   am
    81   118   117    1
    82    74    73   ar
    83    71    73   ar
    84    63    61   ar
    85    63    64   ar
    86    16    17    1
    87    61    60   ar
    88    26    24   ar
    89   131   129   am
    90    33    32   ar
    91    23    21   ar
    92    38    36   ar
    93    38    40   ar
    94    89    88    1
    95    36    34   ar
    96   144   145    1
    97    29    30    2
    98    29    28    1
    99    64    62   ar
   100   128   129    1
   101   120   117    1
   102   120   121    1
   103   120   122    1
   104    24    22   ar
   105    17    20    1
   106    17    18    1
   107   116   117    1
   108   145   146    1
   109   129   130    2
   110    60    59    1
   111    60    62   ar
   112    21    22   ar
   113    21    20    1
   114    40    39   ar
   115    56    59    1
   116    56    55    1
   117    32    34   ar
   118    32    31    1
   119    34    37   ar
   120    28    31    1
   121    28    27    1
   122   174   173    1
   123    18    19    2
   124    88    87    1
   125    88    91    1
   126   146   147    2
   127   148   147    1
   128    39    37   ar
   129    92    91    1
   130    92    93    1
   131   175   173    1
   132   147   149    1
   133   173   172    2
   134   198   197    1
   135   153   152    2
   136   196   197   ar
   137   196   194   ar
   138    93    94    1
   139   151   152    1
   140   151   150    1
   141   197   195   ar
   142   172   171    1
   143   171   170    1
   144   194   192   ar
   145    94    95    2
   146    96    95    1
   147   164   162    1
   148   195   193   ar
   149    95    97    1
   150   192   193   ar
   151   192   191    1
   152    14    13    1
   153   162   163    1
   154   162   161    2
   155    15    13    1
   156   191   188    1
   157   170   169    1
   158   161   160    1
   159    13    10    1
   160   169   166    1
   161   160   159    1
   162   168   167    2
   163   183   185   ar
   164   183   181   ar
   165   185   186   ar
   166   167   166    1
   167   188   187    1
   168   188   189    1
   169   190   189    2
   170    10     9    1
   171    10    11    1
   172   166   165    1
   173   180   181    1
   174   180   177    1
   175     9     3   am
   176    12    11    2
   177   181   182   ar
   178   187   178   am
   179   159   158    1
   180   186   184   ar
   181   178   177    1
   182   178   179    2
   183     2     3    1
   184     2     1    1
   185     2     5    1
   186     3     4    2
   187   177   176    1
   188     6     5    1
   189     6     7    1
   190   182   184   ar
   191   158   155    1
   192   154   155    1
   193     7     8    1
   194   155   156    1
   195   156   157    2
