@<TRIPOS>MOLECULE
tmp/2g63B00.pdb
 202 196 0 0 0
SMALL
GASTEIGER

@<TRIPOS>ATOM
      1  N         30.1540   -4.6080   61.4230 N.3    87  ARG87      -0.1231
      2  CA        31.0250   -4.0230   60.4020 C.3    87  ARG87       0.1694
      3  C         32.2460   -4.8850   60.0700 C.2    87  ARG87       0.2592
      4  O         32.6540   -4.9730   58.9030 O.2    87  ARG87      -0.2718
      5  CB        31.4950   -2.6270   60.8250 C.3    87  ARG87       0.0321
      6  CG        32.2170   -1.8610   59.7210 C.3    87  ARG87       0.0489
      7  CD        32.8690   -0.5910   60.2610 C.3    87  ARG87       0.2205
      8  NE        31.9040    0.3890   60.7690 N.pl3  87  ARG87      -0.0865
      9  CZ        31.3540    1.3550   60.0380 C.cat  87  ARG87       0.5346
     10  NH1       31.6580    1.4820   58.7520 N.pl3  87  ARG87       0.1354
     11  NH2       30.5270    2.2210   60.6030 N.pl3  87  ARG87       0.1354
     12  N         32.8250   -5.5230   61.0850 N.am   88  HIS88      -0.1976
     13  CA        34.0050   -6.3570   60.8710 C.3    88  HIS88       0.1656
     14  C         33.7820   -7.8210   61.2160 C.2    88  HIS88       0.2291
     15  O         34.3930   -8.7030   60.6110 O.2    88  HIS88      -0.2864
     16  CB        35.1760   -5.8390   61.7110 C.3    88  HIS88       0.0771
     17  CG        35.4470   -4.3800   61.5330 C.ar   88  HIS88       0.0820
     18  ND1       35.9460   -3.8550   60.3610 N.ar   88  HIS88      -0.2267
     19  CD2       35.2500   -3.3290   62.3650 C.ar   88  HIS88       0.1154
     20  CE1       36.0430   -2.5420   60.4790 C.ar   88  HIS88       0.1986
     21  NE2       35.6270   -2.1980   61.6850 N.ar   88  HIS88      -0.2212
     22  N         33.3310   -1.8170   66.7870 N.3   167  GLU167     -0.1231
     23  CA        33.0560   -0.6090   66.0110 C.3   167  GLU167      0.1699
     24  C         33.8890    0.6240   66.3490 C.2   167  GLU167      0.2592
     25  O         34.3380    1.3310   65.4470 O.2   167  GLU167     -0.2718
     26  CB        31.5620   -0.2430   66.1440 C.3   167  GLU167      0.0402
     27  CG        31.1490    1.0930   65.4960 C.3   167  GLU167      0.1161
     28  CD        31.0600    1.0310   63.9770 C.2   167  GLU167      0.3649
     29  OE1       31.2010   -0.0690   63.4120 O.co2 167  GLU167     -0.2457
     30  OE2       30.8280    2.0860   63.3450 O.co2 167  GLU167     -0.2457
     31  N         34.1010    0.8730   67.6400 N.am  168  GLU168     -0.1979
     32  CA        34.7920    2.0770   68.0810 C.3   168  GLU168      0.1602
     33  C         36.2380    2.0550   68.5830 C.2   168  GLU168      0.2287
     34  O         36.8650    3.1120   68.6530 O.2   168  GLU168     -0.2864
     35  CB        33.9370    2.7740   69.1460 C.3   168  GLU168      0.0415
     36  CG        32.4690    2.9930   68.7630 C.3   168  GLU168      0.1163
     37  CD        32.2920    3.9140   67.5630 C.2   168  GLU168      0.3649
     38  OE1       33.2940    4.4150   67.0180 O.co2 168  GLU168     -0.2457
     39  OE2       31.1400    4.1410   67.1600 O.co2 168  GLU168     -0.2457
     40  N         38.3210   -1.6630   65.7050 N.3   171  SER171     -0.1217
     41  CA        37.9200   -1.7380   64.2980 C.3   171  SER171      0.1889
     42  C         38.1500   -3.1460   63.7990 C.2   171  SER171      0.2288
     43  O         38.6120   -3.3610   62.6800 O.2   171  SER171     -0.2866
     44  CB        38.7260   -0.7520   63.4540 C.3   171  SER171      0.2089
     45  OG        38.5410    0.5790   63.9010 O.3   171  SER171     -0.2183
     46  N         41.4340    9.1580   66.8860 N.3   319  PHE319     -0.1241
     47  CA        40.2290    8.4380   67.3170 C.3   319  PHE319      0.1605
     48  C         40.5590    7.6840   68.6120 C.2   319  PHE319      0.2264
     49  O         39.6740    7.2930   69.3730 O.2   319  PHE319     -0.2867
     50  CB        39.7560    7.4810   66.2210 C.3   319  PHE319      0.0534
     51  CG        39.1770    8.1830   65.0190 C.ar  319  PHE319     -0.0203
     52  CD1       37.8330    8.5470   64.9840 C.ar  319  PHE319     -0.0042
     53  CD2       39.9830    8.4950   63.9310 C.ar  319  PHE319     -0.0042
     54  CE1       37.2990    9.2130   63.8680 C.ar  319  PHE319     -0.0003
     55  CE2       39.4610    9.1580   62.8160 C.ar  319  PHE319     -0.0003
     56  CZ        38.1170    9.5150   62.7870 C.ar  319  PHE319     -0.0000
     57  N         29.9920   15.1180   55.6000 N.3   509  TYR509     -0.1241
     58  CA        30.1940   14.1130   56.6420 C.3   509  TYR509      0.1605
     59  C         30.4600   15.0060   57.8490 C.2   509  TYR509      0.2264
     60  O         29.6120   15.1400   58.7280 O.2   509  TYR509     -0.2867
     61  CB        31.3980   13.2070   56.3530 C.3   509  TYR509      0.0534
     62  CG        31.5510   12.1390   57.4190 C.ar  509  TYR509     -0.0201
     63  CD1       30.5880   11.1360   57.5730 C.ar  509  TYR509     -0.0009
     64  CD2       32.6000   12.1840   58.3310 C.ar  509  TYR509     -0.0009
     65  CE1       30.6650   10.2150   58.6160 C.ar  509  TYR509      0.0417
     66  CE2       32.6910   11.2610   59.3770 C.ar  509  TYR509      0.0417
     67  CZ        31.7170   10.2830   59.5110 C.ar  509  TYR509      0.1957
     68  OH        31.7990    9.3710   60.5360 O.3   509  TYR509     -0.2866
     69  N         37.4310   14.1860   60.3800 N.3   514  SER514     -0.1202
     70  CA        37.1010   13.7330   59.0330 C.3   514  SER514      0.2020
     71  C         37.8040   14.5810   57.9800 C.2   514  SER514      0.2619
     72  O         38.3170   15.6580   58.2760 O.2   514  SER514     -0.2717
     73  CB        35.5850   13.7770   58.7900 C.3   514  SER514      0.2103
     74  OG        35.0600   15.0990   58.8290 O.3   514  SER514     -0.2182
     75  N         37.8400   14.0770   56.7520 N.am  515  GLN515     -0.1965
     76  CA        38.4420   14.8140   55.6460 C.3   515  GLN515      0.1733
     77  C         37.6790   14.4470   54.3930 C.2   515  GLN515      0.2616
     78  O         37.7300   13.3070   53.9490 O.2   515  GLN515     -0.2715
     79  CB        39.9300   14.4650   55.4630 C.3   515  GLN515      0.0408
     80  CG        40.5880   15.2680   54.3320 C.3   515  GLN515      0.0908
     81  CD        42.0950   15.0800   54.2430 C.2   515  GLN515      0.2608
     82  OE1       42.5870   14.0630   53.7640 O.2   515  GLN515     -0.2717
     83  NE2       42.8290   16.0670   54.7130 N.am  515  GLN515     -0.0878
     84  N         36.9630   15.4190   53.8320 N.am  516  LYS516     -0.1977
     85  CA        36.1700   15.1950   52.6280 C.3   516  LYS516      0.1596
     86  C         36.7590   15.9150   51.4150 C.2   516  LYS516      0.2287
     87  O         36.2690   15.7680   50.2980 O.2   516  LYS516     -0.2864
     88  CB        34.7200   15.6460   52.8670 C.3   516  LYS516      0.0298
     89  CG        33.9580   14.7760   53.8740 C.3   516  LYS516      0.0038
     90  CD        33.3990   13.5090   53.2250 C.3   516  LYS516      0.0206
     91  CE        32.3080   13.8500   52.2160 C.3   516  LYS516      0.1093
     92  NZ        31.7640   12.6550   51.5110 N.3   516  LYS516     -0.1314
     93  N         37.8070    9.2010   42.4380 N.3   522  ARG522     -0.1245
     94  CA        36.6300    8.3950   42.7440 C.3   522  ARG522      0.1563
     95  C         35.6080    8.3370   41.6170 C.2   522  ARG522      0.2260
     96  O         35.4530    9.2800   40.8400 O.2   522  ARG522     -0.2867
     97  CB        35.9340    8.9200   44.0070 C.3   522  ARG522      0.0307
     98  CG        36.7970    8.9010   45.2570 C.3   522  ARG522      0.0489
     99  CD        35.9870    9.2050   46.5110 C.3   522  ARG522      0.2205
    100  NE        36.8280    9.1730   47.7060 N.pl3 522  ARG522     -0.0865
    101  CZ        37.6200   10.1660   48.0910 C.cat 522  ARG522      0.5346
    102  NH1       37.6790   11.2880   47.3800 N.pl3 522  ARG522      0.1354
    103  NH2       38.3650   10.0310   49.1800 N.pl3 522  ARG522      0.1354
    104  N         24.9830    9.1340   58.0330 N.3   592  SER592     -0.1202
    105  CA        25.4220    8.9150   59.4200 C.3   592  SER592      0.2020
    106  C         25.8300   10.2770   60.0430 C.2   592  SER592      0.2618
    107  O         24.7960   11.1890   60.0900 O.2   592  SER592     -0.2717
    108  CB        26.5660    7.9000   59.4440 C.3   592  SER592      0.2103
    109  OG        26.8960    7.6690   60.7950 O.3   592  SER592     -0.2182
    110  N         27.0860   10.5530   60.3870 N.am  593  TYR593     -0.1975
    111  CA        27.4160   11.8780   60.9260 C.3   593  TYR593      0.1639
    112  C         26.9840   12.9280   59.9050 C.2   593  TYR593      0.2290
    113  O         26.5410   14.0100   60.2690 O.2   593  TYR593     -0.2864
    114  CB        28.9240   12.0280   61.1910 C.3   593  TYR593      0.0560
    115  CG        29.2290   13.1240   62.1970 C.ar  593  TYR593     -0.0198
    116  CD1       29.1440   14.4710   61.8460 C.ar  593  TYR593     -0.0009
    117  CD2       29.4970   12.8090   63.5340 C.ar  593  TYR593     -0.0009
    118  CE1       29.3080   15.4790   62.8040 C.ar  593  TYR593      0.0417
    119  CE2       29.6550   13.7990   64.4940 C.ar  593  TYR593      0.0417
    120  CZ        29.5570   15.1300   64.1290 C.ar  593  TYR593      0.1957
    121  OH        29.6730   16.0950   65.1050 O.3   593  TYR593     -0.2866
    122  N         22.2390   10.6200   62.8810 N.3   618  VAL618     -0.1245
    123  CA        22.2030   10.5960   64.3390 C.3   618  VAL618      0.1561
    124  C         21.2440   11.7760   64.5430 C.2   618  VAL618      0.2260
    125  O         21.2880   12.7340   63.7670 O.2   618  VAL618     -0.2867
    126  CB        23.5880   10.9370   64.9630 C.3   618  VAL618      0.0252
    127  CG1       23.4150   11.4330   66.3890 C.3   618  VAL618      0.0019
    128  CG2       24.4880    9.6970   64.9570 C.3   618  VAL618      0.0019
    129  N         22.6330   12.8650   70.5010 N.3   621  TRP621     -0.1241
    130  CA        23.7700   12.0930   70.9660 C.3   621  TRP621      0.1605
    131  C         23.5500   11.0510   72.0430 C.2   621  TRP621      0.2264
    132  O         24.3030   10.0800   72.1200 O.2   621  TRP621     -0.2867
    133  CB        24.9010   13.0520   71.3310 C.3   621  TRP621      0.0550
    134  CG        25.4400   13.6920   70.0790 C.ar  621  TRP621      0.0003
    135  CD1       25.3190   14.9980   69.6980 C.ar  621  TRP621      0.0946
    136  CD2       26.0840   13.0140   68.9890 C.ar  621  TRP621      0.0152
    137  NE1       25.8400   15.1730   68.4370 N.ar  621  TRP621     -0.2442
    138  CE2       26.3120   13.9710   67.9770 C.ar  621  TRP621      0.0810
    139  CE3       26.4870   11.6880   68.7720 C.ar  621  TRP621      0.0012
    140  CZ2       26.9210   13.6440   66.7600 C.ar  621  TRP621      0.0191
    141  CZ3       27.0990   11.3610   67.5530 C.ar  621  TRP621      0.0001
    142  CH2       27.3050   12.3410   66.5650 C.ar  621  TRP621      0.0015
    143  N         23.4600    7.5690   70.5500 N.3   624  TYR624     -0.1241
    144  CA        24.6030    6.8940   69.9390 C.3   624  TYR624      0.1605
    145  C         25.5060    6.2190   70.9740 C.2   624  TYR624      0.2264
    146  O         25.3700    6.4550   72.1790 O.2   624  TYR624     -0.2867
    147  CB        25.3970    7.8660   69.0490 C.3   624  TYR624      0.0534
    148  CG        26.2510    7.1410   68.0330 C.ar  624  TYR624     -0.0201
    149  CD1       25.6820    6.2270   67.1390 C.ar  624  TYR624     -0.0009
    150  CD2       27.6420    7.2720   68.0440 C.ar  624  TYR624     -0.0009
    151  CE1       26.4850    5.4450   66.2910 C.ar  624  TYR624      0.0417
    152  CE2       28.4460    6.5030   67.2000 C.ar  624  TYR624      0.0417
    153  CZ        27.8680    5.5890   66.3340 C.ar  624  TYR624      0.1957
    154  OH        28.6820    4.7880   65.5480 O.3   624  TYR624     -0.2866
    155  N         32.2840    6.4390   71.1420 N.3   628  TYR628     -0.1241
    156  CA        32.3870    7.5240   70.1720 C.3   628  TYR628      0.1605
    157  C         31.8330    8.8470   70.6810 C.2   628  TYR628      0.2264
    158  O         32.5310    9.8570   70.7000 O.2   628  TYR628     -0.2867
    159  CB        31.6790    7.1390   68.8650 C.3   628  TYR628      0.0534
    160  CG        31.7410    8.2170   67.7930 C.ar  628  TYR628     -0.0201
    161  CD1       30.8120    9.2570   67.7630 C.ar  628  TYR628     -0.0009
    162  CD2       32.7510    8.2090   66.8310 C.ar  628  TYR628     -0.0009
    163  CE1       30.8920   10.2680   66.7980 C.ar  628  TYR628      0.0417
    164  CE2       32.8400    9.2120   65.8550 C.ar  628  TYR628      0.0417
    165  CZ        31.9130   10.2350   65.8450 C.ar  628  TYR628      0.1957
    166  OH        32.0110   11.2180   64.8920 O.3   628  TYR628     -0.2866
    167  N         33.6830   10.5630   73.6630 N.3   631  ARG631     -0.1245
    168  CA        35.0350   10.9960   73.3380 C.3   631  ARG631      0.1563
    169  C         35.0250   12.4930   73.0450 C.2   631  ARG631      0.2260
    170  O         35.9650   13.2070   73.3880 O.2   631  ARG631     -0.2867
    171  CB        35.5540   10.2290   72.1230 C.3   631  ARG631      0.0307
    172  CG        37.0510   10.3920   71.8720 C.3   631  ARG631      0.0489
    173  CD        37.5760    9.1830   71.1160 C.3   631  ARG631      0.2205
    174  NE        36.9980    9.1040   69.7900 N.pl3 631  ARG631     -0.0865
    175  CZ        36.6140    7.9800   69.1940 C.cat 631  ARG631      0.5346
    176  NH1       36.7350    6.8020   69.7960 N.pl3 631  ARG631      0.1354
    177  NH2       36.1010    8.0430   67.9780 N.pl3 631  ARG631      0.1354
    178  N         23.9580    0.0800   64.1920 N.3   672  ASN672     -0.1225
    179  CA        24.9140    1.1430   64.5260 C.3   672  ASN672      0.1785
    180  C         24.1990    2.4420   64.8910 C.2   672  ASN672      0.2597
    181  O         24.2110    2.8600   66.0560 O.2   672  ASN672     -0.2718
    182  CB        25.8410    1.3370   63.3280 C.3   672  ASN672      0.1169
    183  CG        26.9560    2.3100   63.6010 C.2   672  ASN672      0.2627
    184  OD1       27.0550    2.8780   64.6830 O.2   672  ASN672     -0.2716
    185  ND2       27.8050    2.5140   62.6050 N.am  672  ASN672     -0.0877
    186  N         23.6020    3.0910   63.8950 N.am  673  VAL673     -0.1980
    187  CA        22.8010    4.2960   64.1400 C.3   673  VAL673      0.1595
    188  C         21.3860    3.7030   64.0880 C.2   673  VAL673      0.2287
    189  O         20.8510    3.4010   63.0200 O.2   673  VAL673     -0.2864
    190  CB        22.9780    5.3610   63.0280 C.3   673  VAL673      0.0276
    191  CG1       22.0520    6.5530   63.3030 C.3   673  VAL673      0.0022
    192  CG2       24.4270    5.8480   62.9970 C.3   673  VAL673      0.0022
    193  N         23.3400   -0.3350   58.5500 N.3   702  HIS702     -0.1241
    194  CA        23.9190    0.9820   58.3110 C.3   702  HIS702      0.1621
    195  C         24.4410    1.2260   56.8930 C.2   702  HIS702      0.2264
    196  O         24.4540    2.3540   56.4060 O.2   702  HIS702     -0.2867
    197  CB        25.0460    1.2490   59.2980 C.3   702  HIS702      0.0745
    198  CG        25.4270    2.6890   59.3750 C.ar  702  HIS702      0.0817
    199  ND1       24.5560    3.6600   59.8250 N.ar  702  HIS702     -0.2268
    200  CD2       26.5510    3.3400   58.9930 C.ar  702  HIS702      0.1154
    201  CE1       25.1260    4.8460   59.7110 C.ar  702  HIS702      0.1986
    202  NE2       26.3370    4.6800   59.2070 N.ar  702  HIS702     -0.2212
@<TRIPOS>BOND
     1    96    95    2
     2    95    94    1
     3    93    94    1
     4    94    97    1
     5    97    98    1
     6    98    99    1
     7    99   100    1
     8   102   101    1
     9   100   101    2
    10   101   103    1
    11    87    86    2
    12    86    85    1
    13    92    91    1
    14    91    90    1
    15    85    88    1
    16    85    84    1
    17    88    89    1
    18    90    89    1
    19    82    81    2
    20    84    77   am
    21    78    77    2
    22    81    80    1
    23    81    83   am
    24    80    79    1
    25    77    76    1
    26    79    76    1
    27    57    58    1
    28    76    75    1
    29    61    58    1
    30    61    62    1
    31   196   195    2
    32    58    59    1
    33    75    71   am
    34   195   194    1
    35    62    63   ar
    36    62    64   ar
    37    63    65   ar
    38    59    60    2
    39    71    72    2
    40    71    70    1
    41   104   105    1
    42   194   193    1
    43   194   197    1
    44    64    66   ar
    45    65    67   ar
    46    10     9    1
    47    73    74    1
    48    73    70    1
    49     4     3    2
    50   200   202   ar
    51   200   198   ar
    52    70    69    1
    53   202   201   ar
    54   197   198    1
    55   198   199   ar
    56    66    67   ar
    57   105   108    1
    58   105   106    1
    59   108   109    1
    60    67    68    1
    61   201   199   ar
    62     6     7    1
    63     6     5    1
    64   112   113    2
    65   112   111    1
    66     9    11    1
    67     9     8    2
    68   106   107    2
    69   106   110   am
    70     3     2    1
    71     3    12   am
    72     7     8    1
    73    18    20   ar
    74    18    17   ar
    75   110   111    1
    76     2     5    1
    77     2     1    1
    78    20    21   ar
    79    15    14    2
    80    13    12    1
    81    13    14    1
    82    13    16    1
    83   111   114    1
    84   114   115    1
    85    17    16    1
    86    17    19   ar
    87    21    19   ar
    88   116   115   ar
    89   116   118   ar
    90   115   117   ar
    91   185   183   am
    92    43    42    2
    93    56    55   ar
    94    56    54   ar
    95   118   120   ar
    96    55    53   ar
    97   122   123    1
    98   192   190    1
    99   189   188    2
   100   190   191    1
   101   190   187    1
   102   182   183    1
   103   182   179    1
   104    30    28   ar
   105    29    28   ar
   106    44    45    1
   107    44    41    1
   108   117   119   ar
   109   183   184    2
   110   125   124    2
   111    42    41    1
   112    54    52   ar
   113   186   187    1
   114   186   180   am
   115    53    51   ar
   116    28    27    1
   117   188   187    1
   118   120   119   ar
   119   120   121    1
   120   178   179    1
   121    41    40    1
   122   123   124    1
   123   123   126    1
   124   179   180    1
   125   180   181    2
   126   166   165    1
   127   128   126    1
   128   126   127    1
   129    52    51   ar
   130    51    50    1
   131    25    24    2
   132    27    26    1
   133   154   153    1
   134   165   164   ar
   135   165   163   ar
   136   164   162   ar
   137    23    26    1
   138    23    24    1
   139    23    22    1
   140    50    47    1
   141   151   153   ar
   142   151   149   ar
   143   153   152   ar
   144    24    31   am
   145   142   140   ar
   146   142   141   ar
   147   140   138   ar
   148   163   161   ar
   149   162   160   ar
   150    46    47    1
   151    38    37   ar
   152   149   148   ar
   153    39    37   ar
   154   152   150   ar
   155    47    48    1
   156   141   139   ar
   157    37    36    1
   158    31    32    1
   159   161   160   ar
   160   160   159    1
   161   138   137   ar
   162   138   136   ar
   163   177   175    1
   164   148   150   ar
   165   148   147    1
   166    32    33    1
   167    32    35    1
   168   137   135   ar
   169    33    34    2
   170    48    49    2
   171    36    35    1
   172   139   136   ar
   173   159   156    1
   174   136   134   ar
   175   147   144    1
   176   175   174    2
   177   175   176    1
   178   135   134   ar
   179   174   173    1
   180   144   143    1
   181   144   145    1
   182   134   133    1
   183   156   157    1
   184   156   155    1
   185   129   130    1
   186   157   158    2
   187   130   133    1
   188   130   131    1
   189   145   146    2
   190   173   172    1
   191   172   171    1
   192   131   132    2
   193   171   168    1
   194   169   168    1
   195   169   170    2
   196   168   167    1
