@<TRIPOS>MOLECULE
tmp/2g6bA00.pdb
 190 185 0 0 0
SMALL
GASTEIGER

@<TRIPOS>ATOM
      1  N          9.5130   20.3750   19.2430 N.3    15  SER15      -0.1202
      2  CA        10.7580   19.8780   18.8030 C.3    15  SER15       0.2020
      3  C         11.2520   18.8680   19.8080 C.2    15  SER15       0.2619
      4  O         11.1880   19.0940   20.9920 O.2    15  SER15      -0.2717
      5  CB        11.7790   21.0050   18.6710 C.3    15  SER15       0.2103
      6  OG        13.0160   20.4460   18.3170 O.3    15  SER15      -0.2182
      7  N         11.7420   17.7470   19.3170 N.am   16  GLY16      -0.1942
      8  CA        12.3110   16.7390   20.1630 C.3    16  GLY16       0.2014
      9  C         11.3740   15.6130   20.5440 C.2    16  GLY16       0.2639
     10  O         11.8030   14.6310   21.1640 O.2    16  GLY16      -0.2714
     11  N         10.0960   15.7210   20.2050 N.am   17  VAL17      -0.1963
     12  CA         9.1580   14.7020   20.6900 C.3    17  VAL17       0.1727
     13  C          9.2770   13.3450   19.9730 C.2    17  VAL17       0.2617
     14  O          8.7940   12.3070   20.4980 O.2    17  VAL17      -0.2715
     15  CB         7.6940   15.1900   20.6810 C.3    17  VAL17       0.0290
     16  CG1        7.5260   16.4060   21.6340 C.3    17  VAL17       0.0023
     17  CG2        7.2570   15.4680   19.2610 C.3    17  VAL17       0.0023
     18  N          9.8780   13.3350   18.7820 N.am   18  GLY18      -0.1940
     19  CA        10.0620   12.0920   18.0430 C.3    18  GLY18       0.2014
     20  C          9.3740   11.9580   16.7060 C.2    18  GLY18       0.2639
     21  O          9.2700   10.8470   16.2100 O.2    18  GLY18      -0.2714
     22  N          8.9160   13.0750   16.1200 N.am   19  LYS19      -0.1963
     23  CA         8.2070   13.0760   14.7950 C.3    19  LYS19       0.1728
     24  C          9.0150   12.3820   13.6860 C.2    19  LYS19       0.2617
     25  O          8.5310   11.4230   13.0490 O.2    19  LYS19      -0.2715
     26  CB         7.8490   14.5150   14.3710 C.3    19  LYS19       0.0311
     27  CG         6.9060   15.2520   15.3470 C.3    19  LYS19       0.0038
     28  CD         6.5730   16.6720   14.8860 C.3    19  LYS19       0.0206
     29  CE         7.7850   17.6280   14.9060 C.3    19  LYS19       0.1093
     30  NZ         8.4350   17.7060   16.2080 N.3    19  LYS19      -0.1314
     31  N         10.2520   12.8260   13.4840 N.am   20  THR20      -0.1937
     32  CA        11.1420   12.2350   12.4570 C.3    20  THR20       0.2028
     33  C         11.4230   10.7360   12.7250 C.2    20  THR20       0.2642
     34  O         11.2320    9.8720   11.8440 O.2    20  THR20      -0.2714
     35  CB        12.4950   13.0490   12.3110 C.3    20  THR20       0.1808
     36  OG1       12.1980   14.4230   12.0680 O.3    20  THR20      -0.2208
     37  CG2       13.3310   12.5230   11.1740 C.3    20  THR20       0.0379
     38  N         11.8060   10.4190   13.9410 N.am   21  CYS21      -0.1967
     39  CA        12.0390    9.0230   14.3000 C.3    21  CYS21       0.1712
     40  C         10.8170    8.1380   14.1750 C.2    21  CYS21       0.2296
     41  O         10.9430    6.9770   13.7900 O.2    21  CYS21      -0.2864
     42  CB        12.6280    8.8830   15.7160 C.3    21  CYS21       0.0983
     43  SG        14.2830    9.4200   15.7870 S.3    21  CYS21      -0.0798
     44  N         14.9360    1.9430   14.2140 N.3    31  PHE31      -0.1227
     45  CA        15.2420    3.0970   15.0350 C.3    31  PHE31       0.1736
     46  C         16.7300    3.2710   14.9780 C.2    31  PHE31       0.2595
     47  O         17.4910    2.3890   15.4190 O.2    31  PHE31      -0.2718
     48  CB        14.8500    2.8590   16.4710 C.3    31  PHE31       0.0547
     49  CG        15.2200    3.9800   17.3950 C.ar   31  PHE31      -0.0202
     50  CD1       14.5230    5.2060   17.3560 C.ar   31  PHE31      -0.0042
     51  CD2       16.2430    3.8090   18.3410 C.ar   31  PHE31      -0.0042
     52  CE1       14.8520    6.2260   18.2120 C.ar   31  PHE31      -0.0003
     53  CE2       16.5830    4.8320   19.2030 C.ar   31  PHE31      -0.0003
     54  CZ        15.8820    6.0500   19.1480 C.ar   31  PHE31      -0.0000
     55  N         17.1570    4.3890   14.4220 N.am   32  LEU32      -0.1966
     56  CA        18.5570    4.7220   14.4070 C.3    32  LEU32       0.1728
     57  C         18.7870    5.6110   15.6180 C.2    32  LEU32       0.2616
     58  O         18.2380    6.7340   15.7100 O.2    32  LEU32      -0.2715
     59  CB        18.9420    5.4360   13.0980 C.3    32  LEU32       0.0311
     60  CG        18.9480    4.5790   11.8330 C.3    32  LEU32       0.0022
     61  CD1       19.2040    5.4750   10.6440 C.3    32  LEU32       0.0001
     62  CD2       20.0060    3.5070   11.8800 C.3    32  LEU32       0.0001
     63  N         19.5440    5.0890   16.5760 N.am   33  ALA33      -0.1963
     64  CA        19.9350    5.8560   17.7270 C.3    33  ALA33       0.1728
     65  C         21.1160    6.7570   17.2790 C.2    33  ALA33       0.2617
     66  O         22.2350    6.6220   17.7560 O.2    33  ALA33      -0.2715
     67  CB        20.3290    4.9240   18.8670 C.3    33  ALA33       0.0334
     68  N         20.8470    7.6600   16.3410 N.am   34  GLY34      -0.1940
     69  CA        21.8980    8.4500   15.7240 C.3    34  GLY34       0.2014
     70  C         21.9700    9.8530   16.2650 C.2    34  GLY34       0.2640
     71  O         21.7050   10.0950   17.4390 O.2    34  GLY34      -0.2714
     72  N         22.3450   10.7730   15.3880 N.am   35  THR35      -0.1936
     73  CA        22.4310   12.1760   15.6920 C.3    35  THR35       0.2028
     74  C         21.0370   12.7890   15.7800 C.2    35  THR35       0.2642
     75  O         20.1900   12.5590   14.8930 O.2    35  THR35      -0.2714
     76  CB        23.1900   12.9100   14.5610 C.3    35  THR35       0.1808
     77  OG1       24.3640   12.1520   14.1960 O.3    35  THR35      -0.2208
     78  CG2       23.5770   14.3240   14.9900 C.3    35  THR35       0.0379
     79  N         20.7870   13.5580   16.8320 N.am   36  PHE36      -0.1959
     80  CA        19.5710   14.3450   16.8700 C.3    36  PHE36       0.1771
     81  C         19.6910   15.4590   15.8500 C.2    36  PHE36       0.2619
     82  O         20.4440   16.3930   16.0400 O.2    36  PHE36      -0.2715
     83  CB        19.2720   14.9450   18.2390 C.3    36  PHE36       0.0574
     84  CG        18.0900   15.9080   18.2220 C.ar   36  PHE36      -0.0200
     85  CD1       16.9600   15.6470   17.4210 C.ar   36  PHE36      -0.0042
     86  CD2       18.0950   17.0490   19.0030 C.ar   36  PHE36      -0.0042
     87  CE1       15.8570   16.5320   17.3970 C.ar   36  PHE36      -0.0003
     88  CE2       16.9870   17.9400   19.0000 C.ar   36  PHE36      -0.0003
     89  CZ        15.8710   17.6720   18.1870 C.ar   36  PHE36      -0.0000
     90  N         18.9620   15.3210   14.7570 N.am   37  ILE37      -0.1963
     91  CA        18.9350   16.3240   13.7150 C.3    37  ILE37       0.1727
     92  C         17.5350   16.9490   13.6350 C.2    37  ILE37       0.2617
     93  O         16.5930   16.3360   13.0930 O.2    37  ILE37      -0.2715
     94  CB        19.3290   15.7180   12.3820 C.3    37  ILE37       0.0290
     95  CG1       20.7860   15.2160   12.4600 C.3    37  ILE37       0.0022
     96  CG2       19.1410   16.7350   11.2960 C.3    37  ILE37       0.0023
     97  CD1       21.2630   14.4390   11.2580 C.3    37  ILE37       0.0001
     98  N         17.4140   18.1450   14.2050 N.am   38  SER38      -0.1936
     99  CA        16.1940   18.9390   14.1480 C.3    38  SER38       0.2055
    100  C         15.7770   19.2760   12.7380 C.2    38  SER38       0.2643
    101  O         16.5610   19.8190   11.9560 O.2    38  SER38      -0.2714
    102  CB        16.3290   20.2400   14.9200 C.3    38  SER38       0.2130
    103  OG        15.7030   20.1360   16.1750 O.3    38  SER38      -0.2179
    104  N         14.5230   18.9540   12.4390 N.am   39  THR39      -0.1950
    105  CA        13.9090   19.1480   11.1220 C.3    39  THR39       0.1897
    106  C         13.6750   20.6110   10.8800 C.2    39  THR39       0.2313
    107  O         13.1100   21.2840   11.7280 O.2    39  THR39      -0.2863
    108  CB        12.5530   18.3800   11.0610 C.3    39  THR39       0.1794
    109  OG1       12.7970   17.0620   11.4760 O.3    39  THR39      -0.2208
    110  CG2       11.9290   18.3480    9.6210 C.3    39  THR39       0.0378
    111  N          7.5430   17.7050    9.8970 N.3    63  THR63      -0.1218
    112  CA         7.5000   19.1440   10.0560 C.3    63  THR63       0.1862
    113  C          8.4770   19.5610   11.1510 C.2    63  THR63       0.2287
    114  O          8.8690   18.7660   11.9850 O.2    63  THR63      -0.2866
    115  CB         6.0910   19.6400   10.4300 C.3    63  THR63       0.1770
    116  OG1        5.7420   19.1470   11.7220 O.3    63  THR63      -0.2211
    117  CG2        5.0160   19.2170    9.3990 C.3    63  THR63       0.0375
    118  N          9.4500   21.2060   14.5790 N.3    65  GLY65      -0.1210
    119  CA         8.8240   21.5170   15.8820 C.3    65  GLY65       0.1956
    120  C          9.3180   22.8120   16.5120 C.2    65  GLY65       0.2611
    121  O          8.6530   23.3700   17.3840 O.2    65  GLY65      -0.2717
    122  N         10.5010   23.2790   16.0950 N.am   66  GLN66      -0.1979
    123  CA        11.0970   24.5240   16.6450 C.3    66  GLN66       0.1601
    124  C         10.4150   25.7780   16.0780 C.2    66  GLN66       0.2287
    125  O         10.2090   25.8640   14.8490 O.2    66  GLN66      -0.2864
    126  CB        12.6140   24.5610   16.3830 C.3    66  GLN66       0.0394
    127  CG        13.3570   23.4310   17.0610 C.3    66  GLN66       0.0908
    128  CD        14.8350   23.7000   17.3240 C.2    66  GLN66       0.2608
    129  OE1       15.6020   24.0060   16.4180 O.2    66  GLN66      -0.2717
    130  NE2       15.2480   23.5260   18.5920 N.am   66  GLN66      -0.0878
    131  N          4.6470    9.6820   22.9100 N.3   112  ASN112     -0.1225
    132  CA         5.7860    8.9390   22.4250 C.3   112  ASN112      0.1785
    133  C          6.9010    8.8240   23.4830 C.2   112  ASN112      0.2597
    134  O          6.8300    9.4540   24.5370 O.2   112  ASN112     -0.2718
    135  CB         6.3030    9.6240   21.1270 C.3   112  ASN112      0.1169
    136  CG         7.3360    8.7880   20.3880 C.2   112  ASN112      0.2627
    137  OD1        7.1360    7.5970   20.1410 O.2   112  ASN112     -0.2716
    138  ND2        8.4540    9.4070   20.0540 N.am  112  ASN112     -0.0877
    139  N          7.9010    8.0110   23.1710 N.am  113  LYS113     -0.1980
    140  CA         9.0550    7.6760   24.0590 C.3   113  LYS113      0.1596
    141  C          8.6600    6.8550   25.2790 C.2   113  LYS113      0.2287
    142  O          9.2370    7.0120   26.3460 O.2   113  LYS113     -0.2864
    143  CB         9.8590    8.9260   24.4690 C.3   113  LYS113      0.0298
    144  CG        10.2520    9.8160   23.2690 C.3   113  LYS113      0.0038
    145  CD        11.5310   10.5520   23.5200 C.3   113  LYS113      0.0206
    146  CE        11.6420   11.7610   22.6890 C.3   113  LYS113      0.1093
    147  NZ        12.9280   12.5140   22.9010 N.3   113  LYS113     -0.1314
    148  N          9.3940    3.9600   26.7330 N.3   115  ASP115     -0.1239
    149  CA        10.4450    2.9370   26.7030 C.3   115  ASP115      0.1674
    150  C         11.4580    3.1540   27.8620 C.2   115  ASP115      0.2266
    151  O         11.3500    4.1280   28.6140 O.2   115  ASP115     -0.2867
    152  CB        11.1260    2.8980   25.3000 C.3   115  ASP115      0.1410
    153  CG        11.6650    4.2470   24.8640 C.2   115  ASP115      0.3668
    154  OD1       12.6190    4.7200   25.5170 O.co2 115  ASP115     -0.2456
    155  OD2       11.1280    4.8470   23.8710 O.co2 115  ASP115     -0.2456
    156  N         14.4800    4.2230   28.0300 N.3   117  ALA117     -0.1231
    157  CA        15.4770    5.2730   27.8750 C.3   117  ALA117      0.1694
    158  C         15.4030    6.3970   28.9250 C.2   117  ALA117      0.2592
    159  O         16.4230    6.7650   29.5130 O.2   117  ALA117     -0.2718
    160  CB        15.3990    5.8470   26.4670 C.3   117  ALA117      0.0304
    161  N         14.2100    6.9550   29.1370 N.am  118  HIS118     -0.1976
    162  CA        14.0420    8.0660   30.0740 C.3   118  HIS118      0.1656
    163  C         12.8300    7.8320   30.9800 C.2   118  HIS118      0.2291
    164  O         11.9860    6.9470   30.7260 O.2   118  HIS118     -0.2864
    165  CB        13.8700    9.3940   29.3360 C.3   118  HIS118      0.0771
    166  CG        14.7510    9.5440   28.1340 C.ar  118  HIS118      0.0820
    167  ND1       16.0540    9.9970   28.2150 N.ar  118  HIS118     -0.2267
    168  CD2       14.5090    9.3220   26.8160 C.ar  118  HIS118      0.1154
    169  CE1       16.5810   10.0360   27.0030 C.ar  118  HIS118      0.1986
    170  NE2       15.6680    9.6250   26.1370 N.ar  118  HIS118     -0.2212
    171  N          6.5270    4.2780   20.8220 N.3   142  SER142     -0.1202
    172  CA         7.9790    4.3590   20.8920 C.3   142  SER142      0.2020
    173  C          8.5840    4.0820   19.5270 C.2   142  SER142      0.2619
    174  O          8.4460    2.9820   18.9890 O.2   142  SER142     -0.2717
    175  CB         8.5540    3.3770   21.9000 C.3   142  SER142      0.2103
    176  OG         9.9710    3.3560   21.8030 O.3   142  SER142     -0.2182
    177  N          9.2820    5.0780   18.9750 N.am  143  ALA143     -0.1965
    178  CA        10.0840    4.8710   17.7520 C.3   143  ALA143      0.1728
    179  C         11.2160    3.8790   18.0510 C.2   143  ALA143      0.2616
    180  O         11.6030    3.0720   17.2020 O.2   143  ALA143     -0.2715
    181  CB        10.6580    6.2080   17.2340 C.3   143  ALA143      0.0334
    182  N         11.7190    3.9140   19.2840 N.am  144  LYS144     -0.1977
    183  CA        12.8230    3.0410   19.6860 C.3   144  LYS144      0.1596
    184  C         12.4610    1.5390   19.6850 C.2   144  LYS144      0.2287
    185  O         13.1600    0.7290   19.0650 O.2   144  LYS144     -0.2864
    186  CB        13.3800    3.4860   21.0430 C.3   144  LYS144      0.0298
    187  CG        14.6780    2.7690   21.4600 C.3   144  LYS144      0.0038
    188  CD        15.1580    3.1920   22.8500 C.3   144  LYS144      0.0206
    189  CE        16.5520    2.5790   23.1910 C.3   144  LYS144      0.1093
    190  NZ        17.7080    3.5350   22.9120 N.3   144  LYS144     -0.1314
@<TRIPOS>BOND
     1   117   115    1
     2   110   108    1
     3   111   112    1
     4   112   115    1
     5   112   113    1
     6   115   116    1
     7    61    60    1
     8   106   105    1
     9   106   107    2
    10   108   105    1
    11   108   109    1
    12   105   104    1
    13   113   114    2
    14    37    35    1
    15    97    95    1
    16    96    94    1
    17    60    62    1
    18    60    59    1
    19    34    33    2
    20   101   100    2
    21    36    35    1
    22    35    32    1
    23    94    95    1
    24    94    91    1
    25   104   100   am
    26    32    33    1
    27    32    31    1
    28    33    38   am
    29   100    99    1
    30    25    24    2
    31    93    92    2
    32    59    56    1
    33    31    24   am
    34    92    91    1
    35    92    98   am
    36    24    23    1
    37    91    90    1
    38    41    40    2
    39    38    39    1
    40    99    98    1
    41    99   102    1
    42    40    39    1
    43    77    76    1
    44    44    45    1
    45    39    42    1
    46    26    23    1
    47    26    27    1
    48    56    55    1
    49    56    57    1
    50    55    46   am
    51    76    78    1
    52    76    73    1
    53   118   119    1
    54    90    81   am
    55    23    22    1
    56   125   124    2
    57    28    29    1
    58    28    27    1
    59    75    74    2
    60    29    30    1
    61   102   103    1
    62    46    45    1
    63    46    47    2
    64    45    48    1
    65    72    73    1
    66    72    70   am
    67    57    58    2
    68    57    63   am
    69    73    74    1
    70    42    43    1
    71    69    70    1
    72    69    68    1
    73    74    79   am
    74    81    82    2
    75    81    80    1
    76   119   120    1
    77   124   123    1
    78   122   120   am
    79   122   123    1
    80    22    20   am
    81    21    20    2
    82    70    71    2
    83    68    65   am
    84   126   123    1
    85   126   127    1
    86   129   128    2
    87    48    49    1
    88   120   121    2
    89    63    64    1
    90    20    19    1
    91    79    80    1
    92    80    83    1
    93   127   128    1
    94   180   179    2
    95   181   178    1
    96    65    64    1
    97    65    66    2
    98   128   130   am
    99    50    49   ar
   100    50    52   ar
   101    49    51   ar
   102    87    85   ar
   103    87    89   ar
   104    85    84   ar
   105    64    67    1
   106   178   179    1
   107   178   177    1
   108    19    18    1
   109   179   182   am
   110    89    88   ar
   111    52    54   ar
   112    84    83    1
   113    84    86   ar
   114     6     5    1
   115    51    53   ar
   116     5     2    1
   117    18    13   am
   118     2     1    1
   119     2     3    1
   120   177   173   am
   121   174   173    2
   122    88    86   ar
   123   185   184    2
   124    54    53   ar
   125    17    15    1
   126   182   183    1
   127     7     3   am
   128     7     8    1
   129   173   172    1
   130   184   183    1
   131   183   186    1
   132     3     4    2
   133    13    14    2
   134    13    12    1
   135   138   136   am
   136   137   136    2
   137     8     9    1
   138    11     9   am
   139    11    12    1
   140   136   135    1
   141     9    10    2
   142    15    12    1
   143    15    16    1
   144   171   172    1
   145   172   175    1
   146   186   187    1
   147   135   132    1
   148   187   188    1
   149   176   175    1
   150   132   131    1
   151   132   133    1
   152   146   147    1
   153   146   145    1
   154   188   189    1
   155   190   189    1
   156   139   133   am
   157   139   140    1
   158   144   145    1
   159   144   143    1
   160   133   134    2
   161   155   153   ar
   162   140   143    1
   163   140   141    1
   164   153   152    1
   165   153   154   ar
   166   141   142    2
   167   152   149    1
   168   170   168   ar
   169   170   169   ar
   170   160   157    1
   171   149   148    1
   172   149   150    1
   173   168   166   ar
   174   169   167   ar
   175   150   151    2
   176   157   156    1
   177   157   158    1
   178   166   167   ar
   179   166   165    1
   180   158   161   am
   181   158   159    2
   182   161   162    1
   183   165   162    1
   184   162   163    1
   185   164   163    2
