@<TRIPOS>MOLECULE
tmp/2g6dA00.pdb
 169 166 0 0 0
SMALL
GASTEIGER

@<TRIPOS>ATOM
      1  N         28.9800   19.6180   50.1930 N.3    19  GLN19      -0.1245
      2  CA        28.3520   18.3310   50.4720 C.3    19  GLN19       0.1566
      3  C         27.6900   18.2150   51.8390 C.2    19  GLN19       0.2260
      4  O         26.9000   17.2990   52.0720 O.2    19  GLN19      -0.2867
      5  CB        29.3650   17.1980   50.2920 C.3    19  GLN19       0.0367
      6  CG        30.5550   17.2800   51.2140 C.3    19  GLN19       0.0905
      7  CD        31.5510   16.1750   50.9560 C.2    19  GLN19       0.2608
      8  OE1       32.1050   16.0740   49.8660 O.2    19  GLN19      -0.2717
      9  NE2       31.7840   15.3370   51.9580 N.am   19  GLN19      -0.0878
     10  N         26.6650   17.3550   55.5710 N.3    21  SER21      -0.1202
     11  CA        26.8040   16.1850   56.4370 C.3    21  SER21       0.2020
     12  C         26.8450   14.8690   55.6780 C.2    21  SER21       0.2619
     13  O         27.1350   13.8190   56.2430 O.2    21  SER21      -0.2717
     14  CB        25.6550   16.1540   57.4410 C.3    21  SER21       0.2103
     15  OG        25.6500   17.3320   58.2310 O.3    21  SER21      -0.2182
     16  N         26.5450   14.9270   54.3930 N.am   22  CYS22      -0.1955
     17  CA        26.5410   13.7400   53.5600 C.3    22  CYS22       0.1843
     18  C         27.9140   13.6000   52.9020 C.2    22  CYS22       0.2626
     19  O         28.3950   14.5180   52.2400 O.2    22  CYS22      -0.2714
     20  CB        25.4260   13.8790   52.5150 C.3    22  CYS22       0.0997
     21  SG        25.3200   12.5810   51.2520 S.3    22  CYS22      -0.0797
     22  N         28.5500   12.4520   53.0980 N.am   23  GLY23      -0.1954
     23  CA        29.8660   12.2380   52.5210 C.3    23  GLY23       0.1869
     24  C         29.8470   11.7520   51.0870 C.2    23  GLY23       0.2309
     25  O         30.5050   10.7730   50.7550 O.2    23  GLY23      -0.2863
     26  N         31.2690   12.8340   48.3900 N.3    25  CYS25      -0.1221
     27  CA        32.3260   13.4780   47.6230 C.3    25  CYS25       0.1808
     28  C         32.4900   12.7710   46.2810 C.2    25  CYS25       0.2601
     29  O         32.8190   13.4040   45.2780 O.2    25  CYS25      -0.2717
     30  CB        33.6440   13.4140   48.3820 C.3    25  CYS25       0.0970
     31  SG        34.2140   11.7130   48.6760 S.3    25  CYS25      -0.0800
     32  N         32.2730   11.4570   46.2750 N.am   26  TRP26      -0.1976
     33  CA        32.3810   10.6660   45.0510 C.3    26  TRP26       0.1640
     34  C         31.3480   11.1260   44.0280 C.2    26  TRP26       0.2290
     35  O         31.6190   11.1550   42.8250 O.2    26  TRP26      -0.2864
     36  CB        32.1590    9.1730   45.3330 C.3    26  TRP26       0.0576
     37  CG        30.8220    8.8430   45.9460 C.ar   26  TRP26       0.0006
     38  CD1       30.4870    8.9100   47.2680 C.ar   26  TRP26       0.0946
     39  CD2       29.6460    8.3930   45.2590 C.ar   26  TRP26       0.0152
     40  NE1       29.1800    8.5260   47.4480 N.ar   26  TRP26      -0.2442
     41  CE2       28.6400    8.2030   46.2320 C.ar   26  TRP26       0.0810
     42  CE3       29.3450    8.1350   43.9160 C.ar   26  TRP26       0.0012
     43  CZ2       27.3520    7.7640   45.9070 C.ar   26  TRP26       0.0191
     44  CZ3       28.0610    7.6970   43.5900 C.ar   26  TRP26       0.0001
     45  CH2       27.0820    7.5160   44.5840 C.ar   26  TRP26       0.0015
     46  N         27.9880   -0.8650   44.0730 N.3    62  GLY62      -0.1225
     47  CA        28.9570   -0.8380   45.1530 C.3    62  GLY62       0.1811
     48  C         29.0350    0.4820   45.8960 C.2    62  GLY62       0.2280
     49  O         29.9650    0.7090   46.6660 O.2    62  GLY62      -0.2866
     50  N         27.4370    3.4480   48.5370 N.3    64  LYS64      -0.1245
     51  CA        26.6530    3.5130   49.7590 C.3    64  LYS64       0.1561
     52  C         26.1340    4.9110   50.0710 C.2    64  LYS64       0.2260
     53  O         26.1580    5.3440   51.2230 O.2    64  LYS64      -0.2867
     54  CB        27.4920    3.0050   50.9360 C.3    64  LYS64       0.0271
     55  CG        28.0590    1.6100   50.7360 C.3    64  LYS64       0.0035
     56  CD        28.4240    0.9750   52.0710 C.3    64  LYS64       0.0206
     57  CE        28.6930   -0.5170   51.9210 C.3    64  LYS64       0.1093
     58  NZ        28.5930   -1.2590   53.2260 N.3    64  LYS64      -0.1314
     59  N         25.5210    8.4630   51.0920 N.3    66  CYS66      -0.1221
     60  CA        26.2910    9.3830   51.9160 C.3    66  CYS66       0.1808
     61  C         27.4380    8.7240   52.6540 C.2    66  CYS66       0.2601
     62  O         28.2540    9.4090   53.2690 O.2    66  CYS66      -0.2717
     63  CB        25.3800   10.0670   52.9170 C.3    66  CYS66       0.0970
     64  SG        24.1690   11.1480   52.1150 S.3    66  CYS66      -0.0800
     65  N         27.5130    7.4000   52.5830 N.am   67  ASN67      -0.1960
     66  CA        28.5660    6.6790   53.2750 C.3    67  ASN67       0.1819
     67  C         29.7280    6.2550   52.4000 C.2    67  ASN67       0.2622
     68  O         30.5240    5.4100   52.8080 O.2    67  ASN67      -0.2715
     69  CB        27.9870    5.4580   53.9890 C.3    67  ASN67       0.1195
     70  CG        27.1650    5.8360   55.2080 C.2    67  ASN67       0.2630
     71  OD1       27.6580    6.4960   56.1220 O.2    67  ASN67      -0.2716
     72  ND2       25.9060    5.4230   55.2250 N.am   67  ASN67      -0.0877
     73  N         29.8290    6.8320   51.2030 N.am   68  GLY68      -0.1940
     74  CA        30.9390    6.5030   50.3190 C.3    68  GLY68       0.2014
     75  C         30.5850    5.8170   49.0160 C.2    68  GLY68       0.2639
     76  O         29.6020    5.0810   48.9430 O.2    68  GLY68      -0.2714
     77  N         31.3960    6.0550   47.9870 N.am   69  GLY69      -0.1939
     78  CA        31.1530    5.4480   46.6850 C.3    69  GLY69       0.2014
     79  C         32.3570    5.4880   45.7530 C.2    69  GLY69       0.2639
     80  O         33.4710    5.7980   46.1770 O.2    69  GLY69      -0.2714
     81  N         32.1330    5.1660   44.4820 N.am   70  PHE70      -0.1959
     82  CA        33.1900    5.1670   43.4700 C.3    70  PHE70       0.1771
     83  C         32.7840    6.0280   42.2850 C.2    70  PHE70       0.2619
     84  O         31.6410    5.9660   41.8230 O.2    70  PHE70      -0.2715
     85  CB        33.4520    3.7490   42.9520 C.3    70  PHE70       0.0574
     86  CG        33.9590    2.8000   43.9940 C.ar   70  PHE70      -0.0200
     87  CD1       35.2240    2.9640   44.5450 C.ar   70  PHE70      -0.0042
     88  CD2       33.1740    1.7300   44.4180 C.ar   70  PHE70      -0.0042
     89  CE1       35.7010    2.0750   45.5020 C.ar   70  PHE70      -0.0003
     90  CE2       33.6430    0.8350   45.3740 C.ar   70  PHE70      -0.0003
     91  CZ        34.9070    1.0070   45.9170 C.ar   70  PHE70      -0.0000
     92  N         33.7180    6.8220   41.7780 N.am   71  MET71      -0.1963
     93  CA        33.4160    7.6590   40.6240 C.3    71  MET71       0.1736
     94  C         33.1500    6.7890   39.3890 C.2    71  MET71       0.2617
     95  O         32.2140    7.0500   38.6280 O.2    71  MET71      -0.2715
     96  CB        34.5640    8.6370   40.3490 C.3    71  MET71       0.0427
     97  CG        34.7260    9.7370   41.4050 C.3    71  MET71       0.0599
     98  SD        35.6220    9.2290   42.8900 S.3    71  MET71      -0.1393
     99  CE        37.2880    9.6250   42.4080 C.3    71  MET71       0.0692
    100  N         33.9550    5.7440   39.2020 N.am   72  THR72      -0.1951
    101  CA        33.7910    4.8560   38.0540 C.3    72  THR72       0.1897
    102  C         32.4290    4.1700   38.0100 C.2    72  THR72       0.2313
    103  O         31.7900    4.1420   36.9600 O.2    72  THR72      -0.2863
    104  CB        34.8820    3.7740   38.0170 C.3    72  THR72       0.1794
    105  OG1       34.9130    3.0880   39.2740 O.3    72  THR72      -0.2208
    106  CG2       36.2450    4.3990   37.7450 C.3    72  THR72       0.0378
    107  N         41.2270   10.2870   43.1960 N.3   137  GLY137     -0.1225
    108  CA        41.0910   10.0600   44.6200 C.3   137  GLY137      0.1811
    109  C         42.3820   10.5040   45.2680 C.2   137  GLY137      0.2280
    110  O         43.4580   10.2630   44.7310 O.2   137  GLY137     -0.2866
    111  N         43.2920   12.4770   51.9090 N.3   140  ALA140     -0.1245
    112  CA        42.9700   13.7280   52.5840 C.3   140  ALA140      0.1562
    113  C         42.6130   13.4760   54.0410 C.2   140  ALA140      0.2260
    114  O         41.6650   14.0530   54.5650 O.2   140  ALA140     -0.2867
    115  CB        41.8180   14.4080   51.8810 C.3   140  ALA140      0.0290
    116  N         44.3310    6.4700   49.1510 N.3   162  VAL162     -0.1231
    117  CA        43.2780    7.4430   48.8830 C.3   162  VAL162      0.1692
    118  C         41.9850    7.1770   49.6340 C.2   162  VAL162      0.2592
    119  O         41.6820    6.0380   49.9840 O.2   162  VAL162     -0.2718
    120  CB        42.9640    7.5140   47.3660 C.3   162  VAL162      0.0266
    121  CG1       44.2200    7.8840   46.6000 C.3   162  VAL162      0.0020
    122  CG2       42.4200    6.1810   46.8750 C.3   162  VAL162      0.0020
    123  N         41.2200    8.2370   49.8760 N.am  163  ASN163     -0.1960
    124  CA        39.9510    8.1080   50.5780 C.3   163  ASN163      0.1819
    125  C         38.9600    9.2070   50.1980 C.2   163  ASN163      0.2621
    126  O         37.7870    9.1390   50.5610 O.2   163  ASN163     -0.2715
    127  CB        40.1750    8.1730   52.0800 C.3   163  ASN163      0.1195
    128  CG        40.4030    9.5830   52.5600 C.2   163  ASN163      0.2630
    129  OD1       41.3870   10.2230   52.1920 O.2   163  ASN163     -0.2716
    130  ND2       39.4860   10.0870   53.3760 N.am  163  ASN163     -0.0877
    131  N         39.4230   10.2100   49.4590 N.am  164  HIS164     -0.1959
    132  CA        38.5600   11.3300   49.0950 C.3   164  HIS164      0.1787
    133  C         38.5070   11.5990   47.5930 C.2   164  HIS164      0.2620
    134  O         39.5320   11.8160   46.9530 O.2   164  HIS164     -0.2715
    135  CB        39.0370   12.5710   49.8680 C.3   164  HIS164      0.0785
    136  CG        38.2960   13.8340   49.5470 C.ar  164  HIS164      0.0821
    137  ND1       36.9310   13.8750   49.3510 N.ar  164  HIS164     -0.2267
    138  CD2       38.7220   15.1190   49.4790 C.ar  164  HIS164      0.1154
    139  CE1       36.5490   15.1290   49.1810 C.ar  164  HIS164      0.1986
    140  NE2       37.6170   15.9040   49.2550 N.ar  164  HIS164     -0.2212
    141  N         37.3000   11.5750   47.0400 N.am  165  GLY165     -0.1954
    142  CA        37.1200   11.8250   45.6190 C.3   165  GLY165      0.1869
    143  C         36.9490   13.3060   45.3170 C.2   165  GLY165      0.2309
    144  O         36.0910   13.9740   45.9030 O.2   165  GLY165     -0.2863
    145  N         33.8490   21.0650   49.5940 N.3   186  TRP186     -0.1241
    146  CA        33.6220   21.4510   50.9730 C.3   186  TRP186      0.1605
    147  C         33.2170   22.9110   51.0680 C.2   186  TRP186      0.2264
    148  O         33.4080   23.5450   52.1040 O.2   186  TRP186     -0.2867
    149  CB        34.8840   21.2250   51.8050 C.3   186  TRP186      0.0550
    150  CG        35.2920   19.7950   51.9180 C.ar  186  TRP186      0.0003
    151  CD1       34.5700   18.7010   51.5390 C.ar  186  TRP186      0.0946
    152  CD2       36.5040   19.2960   52.4880 C.ar  186  TRP186      0.0152
    153  NE1       35.2550   17.5530   51.8380 N.ar  186  TRP186     -0.2442
    154  CE2       36.4470   17.8880   52.4230 C.ar  186  TRP186      0.0810
    155  CE3       37.6340   19.9040   53.0520 C.ar  186  TRP186      0.0012
    156  CZ2       37.4800   17.0720   52.9020 C.ar  186  TRP186      0.0191
    157  CZ3       38.6620   19.0930   53.5280 C.ar  186  TRP186      0.0001
    158  CH2       38.5750   17.6910   53.4490 C.ar  186  TRP186      0.0015
    159  N         44.1100    6.5290   41.0150 N.3   211  PHE211     -0.1241
    160  CA        42.9290    6.0260   40.3230 C.3   211  PHE211      0.1605
    161  C         42.1890    7.1020   39.5340 C.2   211  PHE211      0.2264
    162  O         41.0330    7.4070   39.8220 O.2   211  PHE211     -0.2867
    163  CB        41.9780    5.3860   41.3360 C.3   211  PHE211      0.0534
    164  CG        42.5890    4.2530   42.1050 C.ar  211  PHE211     -0.0203
    165  CD1       42.8640    3.0370   41.4810 C.ar  211  PHE211     -0.0042
    166  CD2       42.9280    4.4080   43.4480 C.ar  211  PHE211     -0.0042
    167  CE1       43.4740    1.9850   42.1910 C.ar  211  PHE211     -0.0003
    168  CE2       43.5380    3.3640   44.1630 C.ar  211  PHE211     -0.0003
    169  CZ        43.8100    2.1580   43.5350 C.ar  211  PHE211     -0.0000
@<TRIPOS>BOND
     1   103   102    2
     2   106   104    1
     3   102   101    1
     4   104   101    1
     5   104   105    1
     6   101   100    1
     7    95    94    2
     8   100    94   am
     9    94    93    1
    10   161   162    2
    11   161   160    1
    12   160   159    1
    13   160   163    1
    14    96    93    1
    15    96    97    1
    16    93    92    1
    17   163   164    1
    18    97    98    1
    19   165   164   ar
    20   165   167   ar
    21    92    83   am
    22    84    83    2
    23   164   166   ar
    24   167   169   ar
    25    83    82    1
    26    99    98    1
    27    35    34    2
    28    85    82    1
    29    85    86    1
    30   107   108    1
    31   166   168   ar
    32    82    81    1
    33   169   168   ar
    34    44    42   ar
    35    44    45   ar
    36    42    39   ar
    37    86    88   ar
    38    86    87   ar
    39    34    33    1
    40    46    47    1
    41    88    90   ar
    42    81    79   am
    43    87    89   ar
    44    45    43   ar
    45   108   109    1
    46   110   109    2
    47    33    36    1
    48    33    32    1
    49    47    48    1
    50    39    37   ar
    51    39    41   ar
    52    29    28    2
    53   143   142    1
    54   143   144    2
    55    36    37    1
    56    90    91   ar
    57    89    91   ar
    58   142   141    1
    59    79    80    2
    60    79    78    1
    61    48    49    2
    62    43    41   ar
    63    37    38   ar
    64    41    40   ar
    65    32    28   am
    66    28    27    1
    67   121   120    1
    68    78    77    1
    69   122   120    1
    70   134   133    2
    71   141   133   am
    72    38    40   ar
    73   120   117    1
    74   133   132    1
    75    27    30    1
    76    27    26    1
    77    77    75   am
    78    30    31    1
    79    50    51    1
    80   117   116    1
    81   117   118    1
    82    76    75    2
    83    75    74    1
    84   132   131    1
    85   132   135    1
    86   139   140   ar
    87   139   137   ar
    88   140   138   ar
    89   137   136   ar
    90   131   125   am
    91   138   136   ar
    92   136   135    1
    93   145   146    1
    94   118   123   am
    95   118   119    2
    96    51    52    1
    97    51    54    1
    98     8     7    2
    99   123   124    1
   100    52    53    2
   101     1     2    1
   102   125   126    2
   103   125   124    1
   104     5     2    1
   105     5     6    1
   106    74    73    1
   107     2     3    1
   108   124   127    1
   109    55    54    1
   110    55    56    1
   111    25    24    2
   112     7     6    1
   113     7     9   am
   114   146   147    1
   115   146   149    1
   116   147   148    2
   117    24    23    1
   118    59    60    1
   119    73    67   am
   120    21    64    1
   121    21    20    1
   122   151   153   ar
   123   151   150   ar
   124   149   150    1
   125   153   154   ar
   126     3     4    2
   127   115   112    1
   128   111   112    1
   129    60    61    1
   130    60    63    1
   131   150   152   ar
   132    57    56    1
   133    57    58    1
   134   127   128    1
   135    64    63    1
   136   129   128    2
   137    19    18    2
   138    67    68    2
   139    67    66    1
   140   154   152   ar
   141   154   156   ar
   142   152   155   ar
   143    20    17    1
   144    23    22    1
   145   128   130   am
   146    65    61   am
   147    65    66    1
   148   112   113    1
   149    61    62    2
   150   156   158   ar
   151    18    22   am
   152    18    17    1
   153   155   157   ar
   154    66    69    1
   155   158   157   ar
   156    17    16    1
   157    69    70    1
   158   113   114    2
   159    16    12   am
   160    70    72   am
   161    70    71    2
   162    10    11    1
   163    12    13    2
   164    12    11    1
   165    11    14    1
   166    14    15    1
