@<TRIPOS>MOLECULE
tmp/2g6hB03.pdb
 154 153 0 0 0
SMALL
GASTEIGER

@<TRIPOS>ATOM
      1  N         20.5740    3.8090   64.3730 N.3   171  GLN171     -0.1245
      2  CA        19.5230    2.8390   64.7340 C.3   171  GLN171      0.1566
      3  C         19.9050    2.3580   66.1510 C.2   171  GLN171      0.2260
      4  O         21.1060    2.2960   66.4920 O.2   171  GLN171     -0.2867
      5  CB        19.4820    1.6510   63.7740 C.3   171  GLN171      0.0367
      6  CG        18.8730    1.9250   62.3840 C.3   171  GLN171      0.0905
      7  CD        18.8390    0.6790   61.5140 C.2   171  GLN171      0.2608
      8  OE1       18.5900   -0.4260   62.0100 O.2   171  GLN171     -0.2717
      9  NE2       19.0730    0.8440   60.2140 N.am  171  GLN171     -0.0878
     10  N         22.6120   -1.8830   65.7310 N.3   174  ARG174     -0.1245
     11  CA        23.3270   -1.8730   64.4680 C.3   174  ARG174      0.1563
     12  C         24.7250   -2.4280   64.7260 C.2   174  ARG174      0.2260
     13  O         25.2080   -2.3780   65.8570 O.2   174  ARG174     -0.2867
     14  CB        23.4270   -0.4380   63.9230 C.3   174  ARG174      0.0307
     15  CG        22.6100   -0.2230   62.6750 C.3   174  ARG174      0.0489
     16  CD        23.0270    1.0150   61.8910 C.3   174  ARG174      0.2205
     17  NE        22.5620    0.8960   60.5220 N.pl3 174  ARG174     -0.0865
     18  CZ        22.6880    1.8250   59.5850 C.cat 174  ARG174      0.5346
     19  NH1       23.2700    2.9800   59.8510 N.pl3 174  ARG174      0.1354
     20  NH2       22.2320    1.5790   58.3680 N.pl3 174  ARG174      0.1354
     21  N         21.5890  -11.2340   61.5230 N.3   254  TRP254     -0.1227
     22  CA        21.1370   -9.8430   61.5780 C.3   254  TRP254      0.1737
     23  C         20.2740   -9.7020   62.8230 C.2   254  TRP254      0.2595
     24  O         19.9010  -10.7050   63.4330 O.2   254  TRP254     -0.2718
     25  CB        20.3220   -9.4760   60.3300 C.3   254  TRP254      0.0564
     26  CG        20.3010   -8.0040   60.0580 C.ar  254  TRP254      0.0003
     27  CD1       19.2540   -7.1370   60.2450 C.ar  254  TRP254      0.0946
     28  CD2       21.3950   -7.2190   59.5750 C.ar  254  TRP254      0.0152
     29  NE1       19.6410   -5.8560   59.9040 N.ar  254  TRP254     -0.2442
     30  CE2       20.9470   -5.8800   59.4900 C.ar  254  TRP254      0.0810
     31  CE3       22.7150   -7.5180   59.2040 C.ar  254  TRP254      0.0012
     32  CZ2       21.7730   -4.8410   59.0470 C.ar  254  TRP254      0.0191
     33  CZ3       23.5340   -6.4840   58.7610 C.ar  254  TRP254      0.0001
     34  CH2       23.0640   -5.1640   58.6860 C.ar  254  TRP254      0.0015
     35  N         19.9760   -8.4680   63.2160 N.am  255  TYR255     -0.1976
     36  CA        19.1430   -8.2520   64.3840 C.3   255  TYR255      0.1639
     37  C         17.7020   -8.2040   63.9020 C.2   255  TYR255      0.2290
     38  O         17.4410   -7.9310   62.7380 O.2   255  TYR255     -0.2864
     39  CB        19.5370   -6.9540   65.0830 C.3   255  TYR255      0.0560
     40  CG        19.7170   -5.7830   64.1450 C.ar  255  TYR255     -0.0198
     41  CD1       18.6710   -4.9020   63.8870 C.ar  255  TYR255     -0.0009
     42  CD2       20.9500   -5.5450   63.5270 C.ar  255  TYR255     -0.0009
     43  CE1       18.8440   -3.8150   63.0460 C.ar  255  TYR255      0.0417
     44  CE2       21.1310   -4.4610   62.6850 C.ar  255  TYR255      0.0417
     45  CZ        20.0790   -3.6020   62.4500 C.ar  255  TYR255      0.1957
     46  OH        20.2630   -2.5280   61.6190 O.3   255  TYR255     -0.2866
     47  N         14.3220   -3.2950   63.7080 N.3   258  PRO258     -0.2116
     48  CA        14.8510   -2.1280   62.9950 C.3   258  PRO258      0.1372
     49  C         14.3280   -0.8820   63.7140 C.2   258  PRO258      0.2244
     50  O         13.1220   -0.6380   63.7310 O.2   258  PRO258     -0.2868
     51  CB        14.2690   -2.2830   61.5980 C.3   258  PRO258      0.0268
     52  CG        12.8770   -2.8830   61.8760 C.3   258  PRO258      0.0207
     53  CD        13.1460   -3.8720   63.0230 C.3   258  PRO258      0.0892
     54  N         15.0850    3.0860   63.7050 N.3   260  VAL260     -0.1245
     55  CA        15.6960    4.3520   63.3060 C.3   260  VAL260      0.1561
     56  C         15.7030    5.2590   64.5140 C.2   260  VAL260      0.2260
     57  O         14.6840    5.4280   65.1720 O.2   260  VAL260     -0.2867
     58  CB        14.9100    4.9970   62.1660 C.3   260  VAL260      0.0252
     59  CG1       15.4270    6.3970   61.8930 C.3   260  VAL260      0.0019
     60  CG2       15.0270    4.1320   60.9170 C.3   260  VAL260      0.0019
     61  N         12.2140    5.1690   66.9100 N.3   277  PHE277     -0.1227
     62  CA        11.0190    4.3910   66.6090 C.3   277  PHE277      0.1736
     63  C         11.3800    3.0710   65.9340 C.2   277  PHE277      0.2596
     64  O         12.4310    2.9510   65.2900 O.2   277  PHE277     -0.2718
     65  CB        10.0580    5.2050   65.7290 C.3   277  PHE277      0.0547
     66  CG        10.6600    5.6900   64.4270 C.ar  277  PHE277     -0.0202
     67  CD1       10.6960    4.8690   63.3070 C.ar  277  PHE277     -0.0042
     68  CD2       11.1680    6.9800   64.3270 C.ar  277  PHE277     -0.0042
     69  CE1       11.2220    5.3250   62.1100 C.ar  277  PHE277     -0.0003
     70  CE2       11.7010    7.4430   63.1310 C.ar  277  PHE277     -0.0003
     71  CZ        11.7290    6.6180   62.0210 C.ar  277  PHE277     -0.0000
     72  N         10.5140    2.0770   66.0950 N.am  278  SER278     -0.1938
     73  CA        10.7510    0.7720   65.5100 C.3   278  SER278      0.2055
     74  C          9.4870    0.1050   64.9980 C.2   278  SER278      0.2644
     75  O          8.3730    0.4080   65.4460 O.2   278  SER278     -0.2714
     76  CB        11.4110   -0.1510   66.5340 C.3   278  SER278      0.2130
     77  OG        10.5770   -0.3020   67.6600 O.3   278  SER278     -0.2179
     78  N          9.6870   -0.7930   64.0410 N.am  279  GLY279     -0.1939
     79  CA         8.6070   -1.5760   63.4720 C.3   279  GLY279      0.2014
     80  C          9.1780   -2.9800   63.3310 C.2   279  GLY279      0.2639
     81  O          9.6640   -3.5550   64.3000 O.2   279  GLY279     -0.2714
     82  N          9.0870   -3.5420   62.1360 N.am  280  TRP280     -0.1959
     83  CA         9.6590   -4.8490   61.8300 C.3   280  TRP280      0.1771
     84  C         10.1510   -4.7700   60.3840 C.2   280  TRP280      0.2620
     85  O          9.7140   -3.9290   59.5980 O.2   280  TRP280     -0.2715
     86  CB         8.6540   -5.9980   62.0350 C.3   280  TRP280      0.0590
     87  CG         7.3320   -5.8340   61.3780 C.ar  280  TRP280      0.0006
     88  CD1        7.0260   -6.0780   60.0650 C.ar  280  TRP280      0.0946
     89  CD2        6.1070   -5.4560   62.0110 C.ar  280  TRP280      0.0152
     90  NE1        5.6820   -5.8810   59.8510 N.ar  280  TRP280     -0.2442
     91  CE2        5.0960   -5.4990   61.0280 C.ar  280  TRP280      0.0810
     92  CE3        5.7650   -5.0840   63.3180 C.ar  280  TRP280      0.0012
     93  CZ2        3.7600   -5.1850   61.3100 C.ar  280  TRP280      0.0191
     94  CZ3        4.4410   -4.7730   63.6000 C.ar  280  TRP280      0.0001
     95  CH2        3.4530   -4.8280   62.5950 C.ar  280  TRP280      0.0015
     96  N         11.0910   -5.6330   60.0430 N.am  281  TYR281     -0.1960
     97  CA        11.6910   -5.6130   58.7190 C.3   281  TYR281      0.1771
     98  C         10.9060   -6.1470   57.5480 C.2   281  TYR281      0.2619
     99  O         10.0640   -7.0300   57.6940 O.2   281  TYR281     -0.2715
    100  CB        12.9830   -6.4150   58.7440 C.3   281  TYR281      0.0574
    101  CG        14.2000   -5.6650   59.1860 C.ar  281  TYR281     -0.0198
    102  CD1       14.8190   -5.9630   60.3960 C.ar  281  TYR281     -0.0009
    103  CD2       14.7870   -4.7110   58.3520 C.ar  281  TYR281     -0.0009
    104  CE1       15.9960   -5.3360   60.7630 C.ar  281  TYR281      0.0417
    105  CE2       15.9660   -4.0860   58.7080 C.ar  281  TYR281      0.0417
    106  CZ        16.5630   -4.4030   59.9100 C.ar  281  TYR281      0.1957
    107  OH        17.7210   -3.7820   60.2680 O.3   281  TYR281     -0.2866
    108  N         11.2020   -5.5820   56.3810 N.am  282  MET282     -0.1977
    109  CA        10.7030   -6.0960   55.1130 C.3   282  MET282      0.1605
    110  C         12.0160   -6.7840   54.6950 C.2   282  MET282      0.2287
    111  O         13.0860   -6.1840   54.8200 O.2   282  MET282     -0.2864
    112  CB        10.3620   -4.9940   54.1270 C.3   282  MET282      0.0413
    113  CG         9.9010   -5.5480   52.7770 C.3   282  MET282      0.0598
    114  SD         9.0550   -4.3570   51.7000 S.3   282  MET282     -0.1393
    115  CE        10.5540   -3.5030   50.9050 C.3   282  MET282      0.0692
    116  N         15.2430   -5.2870   52.8970 N.3   285  GLU285     -0.1245
    117  CA        16.0780   -4.2990   53.5680 C.3   285  GLU285      0.1567
    118  C         17.4210   -4.9290   53.9520 C.2   285  GLU285      0.2260
    119  O         18.4880   -4.3210   53.7830 O.2   285  GLU285     -0.2867
    120  CB        15.3980   -3.7670   54.8320 C.3   285  GLU285      0.0388
    121  CG        14.0770   -3.0140   54.5840 C.3   285  GLU285      0.1160
    122  CD        13.5340   -2.4160   55.8660 C.2   285  GLU285      0.3649
    123  OE1       14.0810   -1.3710   56.2820 O.co2 285  GLU285     -0.2457
    124  OE2       12.5800   -2.9970   56.4570 O.co2 285  GLU285     -0.2457
    125  N         19.6610   -4.6410   50.3340 N.3   289  ARG289     -0.1231
    126  CA        20.4920   -3.5070   50.7320 C.3   289  ARG289      0.1694
    127  C         21.6190   -3.7620   51.7450 C.2   289  ARG289      0.2592
    128  O         22.7950   -3.5380   51.4340 O.2   289  ARG289     -0.2718
    129  CB        19.6020   -2.3430   51.2400 C.3   289  ARG289      0.0321
    130  CG        18.4020   -1.9760   50.3230 C.3   289  ARG289      0.0489
    131  CD        18.8400   -1.5900   48.9030 C.3   289  ARG289      0.2205
    132  NE        19.9240   -0.6080   48.9480 N.pl3 289  ARG289     -0.0865
    133  CZ        19.7290    0.6640   49.2600 C.cat 289  ARG289      0.5346
    134  NH1       18.4920    1.0770   49.5290 N.pl3 289  ARG289      0.1354
    135  NH2       20.7600    1.5050   49.3410 N.pl3 289  ARG289      0.1354
    136  N         21.2880   -4.2220   52.9470 N.am  290  ASP290     -0.1974
    137  CA        22.3330   -4.4230   53.9500 C.3   290  ASP290      0.1709
    138  C         23.3540   -5.5270   53.5680 C.2   290  ASP290      0.2293
    139  O         24.5470   -5.4330   53.8760 O.2   290  ASP290     -0.2864
    140  CB        21.7050   -4.7250   55.3240 C.3   290  ASP290      0.1436
    141  CG        20.6630   -3.6740   55.7550 C.2   290  ASP290      0.3671
    142  OD1       20.6890   -2.5430   55.2440 O.co2 290  ASP290     -0.2456
    143  OD2       19.8130   -3.9790   56.6220 O.co2 290  ASP290     -0.2456
    144  N         27.8960   -2.0420   51.5210 N.3   296  ARG296     -0.1245
    145  CA        27.4940   -2.6500   52.7920 C.3   296  ARG296      0.1563
    146  C         28.2690   -3.9620   52.9710 C.2   296  ARG296      0.2260
    147  O         29.4800   -3.9860   52.7540 O.2   296  ARG296     -0.2867
    148  CB        25.9730   -2.8910   52.8380 C.3   296  ARG296      0.0307
    149  CG        25.1590   -1.5850   52.8150 C.3   296  ARG296      0.0489
    150  CD        25.5130   -0.6860   53.9780 C.3   296  ARG296      0.2205
    151  NE        25.1100   -1.2490   55.2780 N.pl3 296  ARG296     -0.0865
    152  CZ        23.8670   -1.1910   55.7700 C.cat 296  ARG296      0.5346
    153  NH1       22.8910   -0.5970   55.0760 N.pl3 296  ARG296      0.1354
    154  NH2       23.5950   -1.7070   56.9640 N.pl3 296  ARG296      0.1354
@<TRIPOS>BOND
     1   131   132    1
     2   131   130    1
     3   132   133    2
     4   133   135    1
     5   133   134    1
     6   130   129    1
     7   125   126    1
     8   126   129    1
     9   126   127    1
    10   115   114    1
    11   128   127    2
    12   144   145    1
    13   114   113    1
    14   127   136   am
    15   147   146    2
    16   113   112    1
    17   145   148    1
    18   145   146    1
    19   149   148    1
    20   149   150    1
    21   116   117    1
    22   136   137    1
    23   138   139    2
    24   138   137    1
    25   117   118    1
    26   117   120    1
    27   119   118    2
    28   137   140    1
    29   150   151    1
    30   112   109    1
    31   121   120    1
    32   121   122    1
    33   110   111    2
    34   110   109    1
    35   153   152    1
    36   109   108    1
    37   142   141   ar
    38   151   152    2
    39   140   141    1
    40   141   143   ar
    41   152   154    1
    42   122   123   ar
    43   122   124   ar
    44   108    98   am
    45    98    99    2
    46    98    97    1
    47   103   105   ar
    48   103   101   ar
    49    20    18    1
    50    34    33   ar
    51    34    32   ar
    52   105   106   ar
    53    97   100    1
    54    97    96    1
    55   100   101    1
    56    33    31   ar
    57    32    30   ar
    58   101   102   ar
    59    31    28   ar
    60    30    28   ar
    61    30    29   ar
    62    28    26   ar
    63    18    19    1
    64    18    17    2
    65    85    84    2
    66    90    88   ar
    67    90    91   ar
    68    29    27   ar
    69   106   107    1
    70   106   104   ar
    71    96    84   am
    72    26    27   ar
    73    26    25    1
    74    88    87   ar
    75     9     7   am
    76    25    22    1
    77    84    83    1
    78   102   104   ar
    79    17    16    1
    80    60    58    1
    81    91    93   ar
    82    91    89   ar
    83    93    95   ar
    84    87    89   ar
    85    87    86    1
    86     7     8    2
    87     7     6    1
    88    21    22    1
    89    22    23    1
    90    51    52    1
    91    51    48    1
    92    46    45    1
    93    83    86    1
    94    83    82    1
    95    52    53    1
    96    16    15    1
    97    59    58    1
    98    89    92   ar
    99    71    69   ar
   100    71    70   ar
   101    69    67   ar
   102    82    80   am
   103    58    55    1
   104     6     5    1
   105    45    44   ar
   106    45    43   ar
   107    95    94   ar
   108    15    14    1
   109    44    42   ar
   110    38    37    2
   111    23    35   am
   112    23    24    2
   113    48    47    1
   114    48    49    1
   115    53    47    1
   116    43    41   ar
   117    70    68   ar
   118    35    36    1
   119    55    54    1
   120    55    56    1
   121    67    66   ar
   122    92    94   ar
   123    80    79    1
   124    80    81    2
   125    79    78    1
   126    42    40   ar
   127    49    50    2
   128     5     2    1
   129    41    40   ar
   130    37    36    1
   131    14    11    1
   132    78    74   am
   133    40    39    1
   134    68    66   ar
   135     1     2    1
   136    36    39    1
   137    66    65    1
   138    11    12    1
   139    11    10    1
   140    56    57    2
   141    12    13    2
   142     2     3    1
   143    74    75    2
   144    74    73    1
   145    64    63    2
   146    73    72    1
   147    73    76    1
   148    65    62    1
   149    63    72   am
   150    63    62    1
   151     3     4    2
   152    76    77    1
   153    62    61    1
