@<TRIPOS>MOLECULE
tmp/2g6oA01.pdb
 111 108 0 0 0
SMALL
GASTEIGER

@<TRIPOS>ATOM
      1  N         15.0030   18.6810   28.4360 N.3   183  GLN183     -0.1245
      2  CA        13.8180   18.2290   27.7050 C.3   183  GLN183      0.1566
      3  C         13.8420   18.9440   26.3530 C.2   183  GLN183      0.2260
      4  O         14.4590   20.0020   26.2310 O.2   183  GLN183     -0.2867
      5  CB        12.5280   18.5980   28.4480 C.3   183  GLN183      0.0367
      6  CG        12.2480   17.8160   29.7230 C.3   183  GLN183      0.0905
      7  CD        10.8540   18.1190   30.2780 C.2   183  GLN183      0.2608
      8  OE1        9.9340   18.4330   29.5230 O.2   183  GLN183     -0.2717
      9  NE2       10.6960   18.0140   31.5940 N.am  183  GLN183     -0.0878
     10  N         11.1680   23.2130   26.8290 N.3   186  ARG186     -0.1245
     11  CA        11.3730   23.7780   28.1630 C.3   186  ARG186      0.1563
     12  C         11.1580   25.2880   28.0640 C.2   186  ARG186      0.2260
     13  O         11.4100   25.8800   27.0130 O.2   186  ARG186     -0.2867
     14  CB        12.8120   23.5360   28.6380 C.3   186  ARG186      0.0307
     15  CG        13.2170   22.0830   28.8270 C.3   186  ARG186      0.0489
     16  CD        13.1320   21.6860   30.2880 C.3   186  ARG186      0.2205
     17  NE        11.7560   21.6440   30.7500 N.pl3 186  ARG186     -0.0865
     18  CZ        11.3950   21.5110   32.0210 C.cat 186  ARG186      0.5346
     19  NH1       12.3160   21.4120   32.9700 N.pl3 186  ARG186      0.1354
     20  NH2       10.1060   21.4700   32.3390 N.pl3 186  ARG186      0.1354
     21  N          3.2550   23.1230   27.6330 N.3   267  TYR267     -0.1241
     22  CA         3.4030   22.4220   26.3690 C.3   267  TYR267      0.1605
     23  C          2.8820   20.9920   26.4860 C.2   267  TYR267      0.2264
     24  O          2.8810   20.4040   27.5650 O.2   267  TYR267     -0.2867
     25  CB         4.8670   22.4510   25.9390 C.3   267  TYR267      0.0534
     26  CG         5.8180   22.0280   27.0210 C.ar  267  TYR267     -0.0201
     27  CD1        6.0760   20.6800   27.2540 C.ar  267  TYR267     -0.0009
     28  CD2        6.4560   22.9790   27.8230 C.ar  267  TYR267     -0.0009
     29  CE1        6.9530   20.2860   28.2520 C.ar  267  TYR267      0.0417
     30  CE2        7.3330   22.5950   28.8330 C.ar  267  TYR267      0.0417
     31  CZ         7.5740   21.2470   29.0350 C.ar  267  TYR267      0.1957
     32  OH         8.4430   20.8550   30.0120 O.3   267  TYR267     -0.2866
     33  N          6.0450   15.9550   26.7640 N.3   270  PRO270     -0.2116
     34  CA         7.0830   15.8220   27.7860 C.3   270  PRO270      0.1372
     35  C          8.1500   14.9140   27.1710 C.2   270  PRO270      0.2244
     36  O          7.9510   13.7030   27.0330 O.2   270  PRO270     -0.2868
     37  CB         6.3350   15.1780   28.9520 C.3   270  PRO270      0.0268
     38  CG         5.3370   14.2980   28.2610 C.3   270  PRO270      0.0207
     39  CD         4.8710   15.1140   27.0770 C.3   270  PRO270      0.0892
     40  N         11.9950   13.9740   27.7330 N.3   272  VAL272     -0.1245
     41  CA        13.2510   13.9850   28.4680 C.3   272  VAL272      0.1561
     42  C         14.3880   13.7290   27.4890 C.2   272  VAL272      0.2260
     43  O         14.3750   12.7340   26.7600 O.2   272  VAL272     -0.2867
     44  CB        13.2540   12.8920   29.5510 C.3   272  VAL272      0.0252
     45  CG1       14.5940   12.8820   30.2810 C.3   272  VAL272      0.0019
     46  CG2       12.1060   13.1370   30.5180 C.3   272  VAL272      0.0019
     47  N         13.3400   10.6330   24.7180 N.3   289  PHE289     -0.1241
     48  CA        12.1220    9.8280   24.6880 C.3   289  PHE289      0.1605
     49  C         10.9290   10.6520   25.1560 C.2   289  PHE289      0.2264
     50  O         11.0880   11.6180   25.9010 O.2   289  PHE289     -0.2867
     51  CB        12.2970    8.5830   25.5680 C.3   289  PHE289      0.0534
     52  CG        12.6600    8.8890   27.0000 C.ar  289  PHE289     -0.0203
     53  CD1       11.6900    9.2990   27.9100 C.ar  289  PHE289     -0.0042
     54  CD2       13.9740    8.7630   27.4370 C.ar  289  PHE289     -0.0042
     55  CE1       12.0240    9.5790   29.2430 C.ar  289  PHE289     -0.0003
     56  CE2       14.3230    9.0390   28.7670 C.ar  289  PHE289     -0.0003
     57  CZ        13.3480    9.4470   29.6700 C.ar  289  PHE289     -0.0000
     58  N          3.2550   11.0510   27.2480 N.3   292  TRP292     -0.1227
     59  CA         2.2840   12.1200   27.4310 C.3   292  TRP292      0.1737
     60  C          2.2480   12.4050   28.9230 C.2   292  TRP292      0.2595
     61  O          2.6810   11.5880   29.7290 O.2   292  TRP292     -0.2718
     62  CB         0.8980   11.7500   26.8770 C.3   292  TRP292      0.0564
     63  CG         0.3340   10.4550   27.3420 C.ar  292  TRP292      0.0003
     64  CD1       -0.2480   10.1930   28.5500 C.ar  292  TRP292      0.0946
     65  CD2        0.3080    9.2300   26.6050 C.ar  292  TRP292      0.0152
     66  NE1       -0.6350    8.8750   28.6070 N.ar  292  TRP292     -0.2442
     67  CE2       -0.3050    8.2620   27.4260 C.ar  292  TRP292      0.0810
     68  CE3        0.7460    8.8560   25.3260 C.ar  292  TRP292      0.0012
     69  CZ2       -0.4930    6.9360   27.0130 C.ar  292  TRP292      0.0191
     70  CZ3        0.5590    7.5330   24.9120 C.ar  292  TRP292      0.0001
     71  CH2       -0.0550    6.5920   25.7580 C.ar  292  TRP292      0.0015
     72  N          1.7520   13.5750   29.2870 N.am  293  TYR293     -0.1976
     73  CA         1.7120   13.9840   30.6820 C.3   293  TYR293      0.1639
     74  C          0.6900   13.3660   31.6060 C.2   293  TYR293      0.2290
     75  O         -0.4290   13.0360   31.2090 O.2   293  TYR293     -0.2864
     76  CB         1.5090   15.5000   30.7670 C.3   293  TYR293      0.0560
     77  CG         2.7760   16.3170   30.7430 C.ar  293  TYR293     -0.0198
     78  CD1        3.6740   16.2650   31.8040 C.ar  293  TYR293     -0.0009
     79  CD2        3.0470   17.1870   29.6830 C.ar  293  TYR293     -0.0009
     80  CE1        4.8120   17.0630   31.8190 C.ar  293  TYR293      0.0417
     81  CE2        4.1800   17.9930   29.6860 C.ar  293  TYR293      0.0417
     82  CZ         5.0550   17.9270   30.7580 C.ar  293  TYR293      0.1957
     83  OH         6.1610   18.7350   30.7880 O.3   293  TYR293     -0.2866
     84  N          1.9820   16.3460   37.1500 N.3   297  GLU297     -0.1245
     85  CA         3.3310   16.7790   36.7840 C.3   297  GLU297      0.1567
     86  C          3.2880   18.2810   36.4850 C.2   297  GLU297      0.2260
     87  O          4.1650   19.0530   36.9040 O.2   297  GLU297     -0.2867
     88  CB         3.8130   16.0360   35.5310 C.3   297  GLU297      0.0388
     89  CG         4.1770   14.5730   35.7360 C.3   297  GLU297      0.1160
     90  CD         4.6970   13.9240   34.4490 C.2   297  GLU297      0.3649
     91  OE1        3.8730   13.4420   33.6330 O.co2 297  GLU297     -0.2457
     92  OE2        5.9360   13.9130   34.2520 O.co2 297  GLU297     -0.2457
     93  N          3.5080   19.8180   40.4760 N.3   301  ARG301     -0.1231
     94  CA         4.9540   20.0500   40.5170 C.3   301  ARG301      0.1694
     95  C          5.4390   21.2830   39.7440 C.2   301  ARG301      0.2592
     96  O          5.9480   22.2260   40.3440 O.2   301  ARG301     -0.2718
     97  CB         5.7030   18.7950   40.0390 C.3   301  ARG301      0.0321
     98  CG         5.3620   17.5010   40.8210 C.3   301  ARG301      0.0489
     99  CD         5.5680   17.6610   42.3380 C.3   301  ARG301      0.2205
    100  NE         6.9170   18.1260   42.6430 N.pl3 301  ARG301     -0.0865
    101  CZ         8.0120   17.3790   42.5340 C.cat 301  ARG301      0.5346
    102  NH1        7.9290   16.1090   42.1410 N.pl3 301  ARG301      0.1354
    103  NH2        9.1980   17.9150   42.7860 N.pl3 301  ARG301      0.1354
    104  N          5.2690   21.2830   38.4250 N.am  302  ASN302     -0.1974
    105  CA         5.7180   22.3970   37.5950 C.3   302  ASN302      0.1688
    106  C          5.1140   23.7490   37.9670 C.2   302  ASN302      0.2292
    107  O          5.8200   24.7560   38.0370 O.2   302  ASN302     -0.2864
    108  CB         5.4410   22.0980   36.1110 C.3   302  ASN302      0.1181
    109  CG         6.1850   20.8690   35.6170 C.2   302  ASN302      0.2629
    110  OD1        7.0070   20.3070   36.3390 O.2   302  ASN302     -0.2716
    111  ND2        5.9040   20.4470   34.3840 N.am  302  ASN302     -0.0877
@<TRIPOS>BOND
     1    48    47    1
     2    48    49    1
     3    48    51    1
     4    70    68   ar
     5    70    71   ar
     6    49    50    2
     7    68    65   ar
     8    51    52    1
     9    71    69   ar
    10    25    22    1
    11    25    26    1
    12     4     3    2
    13     3     2    1
    14    22    23    1
    15    22    21    1
    16    23    24    2
    17    65    63   ar
    18    65    67   ar
    19    43    42    2
    20    33    39    1
    21    33    34    1
    22    10    11    1
    23    62    63    1
    24    62    59    1
    25    52    54   ar
    26    52    53   ar
    27    69    67   ar
    28    13    12    2
    29    26    27   ar
    30    26    28   ar
    31    36    35    2
    32    39    38    1
    33    35    34    1
    34    58    59    1
    35    27    29   ar
    36    63    64   ar
    37    67    66   ar
    38    59    60    1
    39    54    56   ar
    40    42    41    1
    41     2     1    1
    42     2     5    1
    43    40    41    1
    44    34    37    1
    45    28    30   ar
    46    53    55   ar
    47    12    11    1
    48    11    14    1
    49    29    31   ar
    50    38    37    1
    51     5     6    1
    52    41    44    1
    53    64    66   ar
    54    14    15    1
    55    56    57   ar
    56    15    16    1
    57    30    31   ar
    58    60    72   am
    59    60    61    2
    60    31    32    1
    61    55    57   ar
    62    72    73    1
    63     8     7    2
    64    44    45    1
    65    44    46    1
    66    79    81   ar
    67    79    77   ar
    68    81    82   ar
    69     6     7    1
    70     7     9   am
    71    16    17    1
    72    73    76    1
    73    73    74    1
    74    77    76    1
    75    77    78   ar
    76    17    18    2
    77    82    83    1
    78    82    80   ar
    79    75    74    2
    80    78    80   ar
    81    18    20    1
    82    18    19    1
    83    91    90   ar
    84    92    90   ar
    85   111   109   am
    86    90    89    1
    87    88    89    1
    88    88    85    1
    89   109   108    1
    90   109   110    2
    91   108   105    1
    92    86    85    1
    93    86    87    2
    94    85    84    1
    95   105   106    1
    96   105   104    1
    97   106   107    2
    98   104    95   am
    99    95    96    2
   100    95    94    1
   101    97    94    1
   102    97    98    1
   103    93    94    1
   104    98    99    1
   105   102   101    1
   106    99   100    1
   107   101   100    2
   108   101   103    1
