@<TRIPOS>MOLECULE
tmp/2g6pA00.pdb
 160 158 0 0 0
SMALL
GASTEIGER

@<TRIPOS>ATOM
      1  N         28.9380   18.6340    9.9070 N.3   103  PRO103     -0.2116
      2  CA        27.8210   17.6770    9.9220 C.3   103  PRO103      0.1372
      3  C         28.2810   16.2020    9.9290 C.2   103  PRO103      0.2244
      4  O         27.5420   15.3130   10.3860 O.2   103  PRO103     -0.2868
      5  CB        27.0790   18.0220    8.6130 C.3   103  PRO103      0.0268
      6  CG        27.4180   19.5390    8.4580 C.3   103  PRO103      0.0207
      7  CD        28.8600   19.4870    8.7050 C.3   103  PRO103      0.0892
      8  N         28.0720   14.0090   13.0430 N.3   106  TYR106     -0.1227
      9  CA        27.4570   14.7520   14.1430 C.3   106  TYR106      0.1736
     10  C         26.1480   13.9650   14.4470 C.2   106  TYR106      0.2595
     11  O         25.2270   13.8690   13.6230 O.2   106  TYR106     -0.2718
     12  CB        27.1920   16.1850   13.7130 C.3   106  TYR106      0.0548
     13  CG        26.6230   17.0350   14.8090 C.ar  106  TYR106     -0.0200
     14  CD1       27.3510   17.3340   15.9390 C.ar  106  TYR106     -0.0009
     15  CD2       25.3440   17.5790   14.6820 C.ar  106  TYR106     -0.0009
     16  CE1       26.8220   18.1740   16.9460 C.ar  106  TYR106      0.0417
     17  CE2       24.7930   18.4070   15.6450 C.ar  106  TYR106      0.0417
     18  CZ        25.5500   18.7110   16.7940 C.ar  106  TYR106      0.1957
     19  OH        25.0560   19.6200   17.7220 O.3   106  TYR106     -0.2866
     20  N         26.1020   13.3840   15.6300 N.am  107  TYR107     -0.1976
     21  CA        24.9970   12.4850   16.0100 C.3   107  TYR107      0.1639
     22  C         24.8070   11.4350   14.9160 C.2   107  TYR107      0.2290
     23  O         23.6870   11.0730   14.5550 O.2   107  TYR107     -0.2864
     24  CB        23.6950   13.2650   16.3150 C.3   107  TYR107      0.0560
     25  CG        23.8430   13.9590   17.6500 C.ar  107  TYR107     -0.0198
     26  CD1       24.3700   15.2360   17.7280 C.ar  107  TYR107     -0.0009
     27  CD2       23.6600   13.2510   18.8610 C.ar  107  TYR107     -0.0009
     28  CE1       24.7450   15.8090   18.9430 C.ar  107  TYR107      0.0417
     29  CE2       24.0490   13.8190   20.1170 C.ar  107  TYR107      0.0417
     30  CZ        24.6030   15.0990   20.1350 C.ar  107  TYR107      0.1957
     31  OH        25.1710   15.6310   21.2790 O.3   107  TYR107     -0.2866
     32  N         25.1820   11.6670   11.6370 N.3   109  PHE109     -0.1241
     33  CA        24.7020   12.1080   10.3000 C.3   109  PHE109      0.1605
     34  C         25.7610   11.5180    9.3270 C.2   109  PHE109      0.2264
     35  O         26.9470   11.7470    9.4910 O.2   109  PHE109     -0.2867
     36  CB        24.7070   13.6260   10.2430 C.3   109  PHE109      0.0534
     37  CG        24.1400   14.1530    8.9770 C.ar  109  PHE109     -0.0203
     38  CD1       22.7560   14.1260    8.7750 C.ar  109  PHE109     -0.0042
     39  CD2       24.9870   14.6600    7.9650 C.ar  109  PHE109     -0.0042
     40  CE1       22.1970   14.6040    7.5740 C.ar  109  PHE109     -0.0003
     41  CE2       24.4350   15.1330    6.7800 C.ar  109  PHE109     -0.0003
     42  CZ        23.0330   15.1030    6.5900 C.ar  109  PHE109     -0.0000
     43  N         24.0030   19.1140    4.2820 N.3   114  CYS114     -0.1235
     44  CA        22.5930   18.6950    4.1810 C.3   114  CYS114      0.1677
     45  C         22.0340   19.2970    2.8950 C.2   114  CYS114      0.2270
     46  O         22.1280   20.4970    2.7150 O.2   114  CYS114     -0.2867
     47  CB        21.8000   19.3210    5.3500 C.3   114  CYS114      0.0956
     48  SG        22.2920   18.7160    6.9730 S.3   114  CYS114     -0.0801
     49  N         17.8430   19.0380    6.7870 N.3   123  HIS123     -0.1241
     50  CA        18.5420   17.7850    7.0250 C.3   123  HIS123      0.1621
     51  C         18.3940   16.6740    6.0040 C.2   123  HIS123      0.2264
     52  O         18.4380   15.5250    6.3760 O.2   123  HIS123     -0.2867
     53  CB        18.1550   17.3180    8.3900 C.3   123  HIS123      0.0745
     54  CG        18.5470   18.2990    9.4430 C.ar  123  HIS123      0.0817
     55  ND1       18.1280   18.2080   10.7490 N.ar  123  HIS123     -0.2268
     56  CD2       19.3270   19.4090    9.3680 C.ar  123  HIS123      0.1154
     57  CE1       18.6310   19.2220   11.4370 C.ar  123  HIS123      0.1986
     58  NE2       19.3650   19.9590   10.6200 N.ar  123  HIS123     -0.2212
     59  N         23.1230   23.1940    3.0720 N.3   140  ASP140     -0.1239
     60  CA        23.4390   23.7940    4.3520 C.3   140  ASP140      0.1674
     61  C         24.8220   23.2530    4.7310 C.2   140  ASP140      0.2266
     62  O         25.0600   22.0590    4.8940 O.2   140  ASP140     -0.2867
     63  CB        22.3180   23.4480    5.3810 C.3   140  ASP140      0.1410
     64  CG        22.5140   24.1210    6.7420 C.2   140  ASP140      0.3668
     65  OD1       23.5870   24.7410    7.0080 O.co2 140  ASP140     -0.2456
     66  OD2       21.5610   24.0450    7.5400 O.co2 140  ASP140     -0.2456
     67  N          9.5910   23.2480   14.5760 N.3   210  SER210     -0.1202
     68  CA        10.4050   22.2900   15.2820 C.3   210  SER210      0.2020
     69  C         11.8990   22.4810   15.1900 C.2   210  SER210      0.2619
     70  O         12.6400   21.7530   15.8630 O.2   210  SER210     -0.2717
     71  CB        10.1240   20.8710   14.7730 C.3   210  SER210      0.2103
     72  OG         8.7380   20.6310   14.6840 O.3   210  SER210     -0.2182
     73  N         12.3320   23.4110   14.3500 N.am  211  TYR211     -0.1961
     74  CA        13.7510   23.6580   14.1520 C.3   211  TYR211      0.1771
     75  C         13.9680   25.1480   14.3460 C.2   211  TYR211      0.2619
     76  O         13.1340   25.9760   13.9360 O.2   211  TYR211     -0.2715
     77  CB        14.1570   23.1590   12.7460 C.3   211  TYR211      0.0574
     78  CG        14.0370   21.6260   12.6160 C.ar  211  TYR211     -0.0198
     79  CD1       15.0580   20.7750   13.0710 C.ar  211  TYR211     -0.0009
     80  CD2       12.9010   21.0390   12.1050 C.ar  211  TYR211     -0.0009
     81  CE1       14.9410   19.3850   13.0070 C.ar  211  TYR211      0.0417
     82  CE2       12.7800   19.6450   12.0500 C.ar  211  TYR211      0.0417
     83  CZ        13.8060   18.8330   12.4970 C.ar  211  TYR211      0.1957
     84  OH        13.6740   17.4590   12.4130 O.3   211  TYR211     -0.2866
     85  N         15.1160   25.5010   14.9350 N.am  212  CYS212     -0.1968
     86  CA        15.4120   26.9050   15.2720 C.3   212  CYS212      0.1712
     87  C         16.8470   27.3190   14.9960 C.2   212  CYS212      0.2296
     88  O         17.6980   26.4570   14.7780 O.2   212  CYS212     -0.2864
     89  CB        15.1490   27.0940   16.7860 C.3   212  CYS212      0.0983
     90  SG        13.4240   26.5990   17.2430 S.3   212  CYS212     -0.0798
     91  N         20.4410   28.9780   16.3340 N.3   214  HIS214     -0.1241
     92  CA        21.1240   28.5440   17.5290 C.3   214  HIS214      0.1621
     93  C         22.4410   29.2920   17.7210 C.2   214  HIS214      0.2264
     94  O         23.0070   29.8230   16.7650 O.2   214  HIS214     -0.2867
     95  CB        21.4410   27.0720   17.3350 C.3   214  HIS214      0.0745
     96  CG        22.1400   26.7900   16.0200 C.ar  214  HIS214      0.0817
     97  ND1       23.5140   26.7610   15.8880 N.ar  214  HIS214     -0.2268
     98  CD2       21.6450   26.5780   14.7730 C.ar  214  HIS214      0.1154
     99  CE1       23.8370   26.5310   14.6250 C.ar  214  HIS214      0.1986
    100  NE2       22.7200   26.4150   13.9300 N.ar  214  HIS214     -0.2212
    101  N         28.7190   23.3540   18.1400 N.3   220  PHE220     -0.1227
    102  CA        28.0000   23.4680   16.8500 C.3   220  PHE220      0.1736
    103  C         26.6310   24.1050   17.0380 C.2   220  PHE220      0.2595
    104  O         26.2190   25.0190   16.2660 O.2   220  PHE220     -0.2718
    105  CB        27.9060   22.0650   16.2330 C.3   220  PHE220      0.0547
    106  CG        27.3720   21.9840   14.8000 C.ar  220  PHE220     -0.0202
    107  CD1       26.8540   23.1130   14.0910 C.ar  220  PHE220     -0.0042
    108  CD2       27.3910   20.7310   14.1530 C.ar  220  PHE220     -0.0042
    109  CE1       26.3690   22.9660   12.7620 C.ar  220  PHE220     -0.0003
    110  CE2       26.9060   20.5600   12.8130 C.ar  220  PHE220     -0.0003
    111  CZ        26.3930   21.6770   12.1190 C.ar  220  PHE220     -0.0000
    112  N         25.9250   23.6360   18.0650 N.am  221  HIS221     -0.1975
    113  CA        24.5820   24.1110   18.3870 C.3   221  HIS221      0.1656
    114  C         24.5150   24.3850   19.9100 C.2   221  HIS221      0.2291
    115  O         24.6380   23.4530   20.7330 O.2   221  HIS221     -0.2864
    116  CB        23.5550   23.0300   17.9870 C.3   221  HIS221      0.0771
    117  CG        23.5250   22.7370   16.5070 C.ar  221  HIS221      0.0820
    118  ND1       24.1750   21.6610   15.9410 N.ar  221  HIS221     -0.2267
    119  CD2       22.9280   23.3920   15.4810 C.ar  221  HIS221      0.1154
    120  CE1       23.9730   21.6560   14.6360 C.ar  221  HIS221      0.1986
    121  NE2       23.2190   22.6960   14.3310 N.ar  221  HIS221     -0.2212
    122  N         18.6550   29.4170   21.7610 N.3   225  ASN225     -0.1240
    123  CA        17.7470   28.7330   20.8660 C.3   225  ASN225      0.1653
    124  C         16.9720   29.8970   20.2570 C.2   225  ASN225      0.2266
    125  O         16.4840   30.7750   20.9780 O.2   225  ASN225     -0.2867
    126  CB        16.7800   27.8630   21.6250 C.3   225  ASN225      0.1155
    127  CG        15.8840   27.0730   20.6970 C.2   225  ASN225      0.2627
    128  OD1       16.3610   26.2790   19.8790 O.2   225  ASN225     -0.2716
    129  ND2       14.5760   27.2910   20.8080 N.am  225  ASN225     -0.0877
    130  N         17.8810   31.0760   10.8220 N.3   247  GLU247     -0.1245
    131  CA        17.7750   30.1930    9.6380 C.3   247  GLU247      0.1567
    132  C         16.3280   29.7560    9.3950 C.2   247  GLU247      0.2260
    133  O         15.9660   28.5660    9.4620 O.2   247  GLU247     -0.2867
    134  CB        18.7240   29.0090    9.8420 C.3   247  GLU247      0.0388
    135  CG        18.4050   28.1670   11.0560 C.3   247  GLU247      0.1160
    136  CD        19.5080   27.1030   11.2930 C.2   247  GLU247      0.3649
    137  OE1       20.4970   27.4100   12.0010 O.co2 247  GLU247     -0.2457
    138  OE2       19.3840   25.9890   10.7290 O.co2 247  GLU247     -0.2457
    139  N         12.8760   28.4850    8.0510 N.3   249  MET249     -0.1245
    140  CA        12.3690   27.4590    7.1740 C.3   249  MET249      0.1570
    141  C         10.9050   27.8590    7.0130 C.2   249  MET249      0.2261
    142  O         10.1340   27.8810    8.0120 O.2   249  MET249     -0.2867
    143  CB        12.5000   26.1250    7.8900 C.3   249  MET249      0.0387
    144  CG        13.9350   25.6380    7.9280 C.3   249  MET249      0.0595
    145  SD        14.2080   24.5320    9.2710 S.3   249  MET249     -0.1393
    146  CE        16.0090   24.1820    9.2570 C.3   249  MET249      0.0692
    147  N         16.5460   11.3800    9.8790 N.3   264  TRP264     -0.1241
    148  CA        17.0470   12.7270    9.6640 C.3   264  TRP264      0.1605
    149  C         16.1770   13.7000    8.8360 C.2   264  TRP264      0.2264
    150  O         15.9180   14.8480    9.2370 O.2   264  TRP264     -0.2867
    151  CB        18.4560   12.6490    9.0190 C.3   264  TRP264      0.0550
    152  CG        19.5180   12.2540    9.9700 C.ar  264  TRP264      0.0003
    153  CD1       20.1850   11.0370   10.0370 C.ar  264  TRP264      0.0946
    154  CD2       20.0720   13.0720   11.0190 C.ar  264  TRP264      0.0152
    155  NE1       21.1190   11.0740   11.0650 N.ar  264  TRP264     -0.2442
    156  CE2       21.0650   12.3010   11.6770 C.ar  264  TRP264      0.0810
    157  CE3       19.8290   14.3840   11.4550 C.ar  264  TRP264      0.0012
    158  CZ2       21.8040   12.8020   12.7480 C.ar  264  TRP264      0.0191
    159  CZ3       20.5650   14.8890   12.5220 C.ar  264  TRP264      0.0001
    160  CH2       21.5430   14.0930   13.1570 C.ar  264  TRP264      0.0015
@<TRIPOS>BOND
     1    46    45    2
     2    45    44    1
     3    59    60    1
     4    44    43    1
     5    44    47    1
     6    60    61    1
     7    60    63    1
     8    61    62    2
     9    47    48    1
    10    63    64    1
    11    51    52    2
    12    51    50    1
    13    42    41   ar
    14    42    40   ar
    15    64    65   ar
    16    64    66   ar
    17    41    39   ar
    18    49    50    1
    19   141   140    1
    20   141   142    2
    21    50    53    1
    22   140   143    1
    23   140   139    1
    24    40    38   ar
    25   143   144    1
    26   144   145    1
    27    39    37   ar
    28    53    54    1
    29     6     5    1
    30     6     7    1
    31     5     2    1
    32     7     1    1
    33    38    37   ar
    34   149   150    2
    35   149   148    1
    36    37    36    1
    37   151   148    1
    38   151   152    1
    39   146   145    1
    40    34    35    2
    41    34    33    1
    42    56    54   ar
    43    56    58   ar
    44   132   133    2
    45   132   131    1
    46    54    55   ar
    47   131   134    1
    48   131   130    1
    49   148   147    1
    50   134   135    1
    51     1     2    1
    52     2     3    1
    53     3     4    2
    54   152   153   ar
    55   152   154   ar
    56   153   155   ar
    57    36    33    1
    58    33    32    1
    59    58    57   ar
    60   138   136   ar
    61    55    57   ar
    62   154   157   ar
    63   154   156   ar
    64   135   136    1
    65   155   156   ar
    66   136   137   ar
    67   157   159   ar
    68   156   158   ar
    69    82    80   ar
    70    82    83   ar
    71    80    78   ar
    72   111   109   ar
    73   111   110   ar
    74    84    83    1
    75    83    81   ar
    76   159   160   ar
    77    78    77    1
    78    78    79   ar
    79    77    74    1
    80   158   160   ar
    81   109   107   ar
    82   110   108   ar
    83    81    79   ar
    84     8     9    1
    85    11    10    2
    86    12     9    1
    87    12    13    1
    88   100    99   ar
    89   100    98   ar
    90    76    75    2
    91   107   106   ar
    92     9    10    1
    93    74    75    1
    94    74    73    1
    95   108   106   ar
    96   121   120   ar
    97   121   119   ar
    98    75    85   am
    99    73    69   am
   100    10    20   am
   101    23    22    2
   102    67    68    1
   103    99    97   ar
   104   120   118   ar
   105    15    13   ar
   106    15    17   ar
   107    72    71    1
   108    98    96   ar
   109    71    68    1
   110    88    87    2
   111   106   105    1
   112    13    14   ar
   113    22    21    1
   114    85    86    1
   115    87    86    1
   116    69    68    1
   117    69    70    2
   118    86    89    1
   119   119   117   ar
   120    20    21    1
   121    17    18   ar
   122    97    96   ar
   123    14    16   ar
   124   118   117   ar
   125    21    24    1
   126    96    95    1
   127   105   102    1
   128   104   103    2
   129    24    25    1
   130    91    92    1
   131   117   116    1
   132    94    93    2
   133    89    90    1
   134    18    16   ar
   135    18    19    1
   136   102   103    1
   137   102   101    1
   138   103   112   am
   139    95    92    1
   140    92    93    1
   141    25    26   ar
   142    25    27   ar
   143    26    28   ar
   144   116   113    1
   145   112   113    1
   146   113   114    1
   147    27    29   ar
   148    28    30   ar
   149   128   127    2
   150   114   115    2
   151    29    30   ar
   152    30    31    1
   153   124   123    1
   154   124   125    2
   155   127   129   am
   156   127   126    1
   157   123   126    1
   158   123   122    1
