@<TRIPOS>MOLECULE
tmp/2g6qA00.pdb
 154 156 0 0 0
SMALL
GASTEIGER

@<TRIPOS>ATOM
      1  N         10.8050   39.4570   14.9320 N.3     4  TYR4       -0.1241
      2  CA         9.5030   39.9930   15.3030 C.3     4  TYR4        0.1605
      3  C          9.2430   39.7260   16.7830 C.2     4  TYR4        0.2264
      4  O         10.1370   39.3120   17.5280 O.2     4  TYR4       -0.2867
      5  CB         8.4030   39.3100   14.4790 C.3     4  TYR4        0.0534
      6  CG         8.6310   39.3270   12.9830 C.ar    4  TYR4       -0.0201
      7  CD1        9.3900   38.3350   12.3560 C.ar    4  TYR4       -0.0009
      8  CD2        8.0990   40.3450   12.1930 C.ar    4  TYR4       -0.0009
      9  CE1        9.6100   38.3620   10.9770 C.ar    4  TYR4        0.0417
     10  CE2        8.3150   40.3800   10.8200 C.ar    4  TYR4        0.0417
     11  CZ         9.0680   39.3910   10.2180 C.ar    4  TYR4        0.1957
     12  OH         9.2700   39.4380    8.8560 O.3     4  TYR4       -0.2866
     13  N         10.9780   34.5460   12.7180 N.3    11  SER11      -0.1202
     14  CA         9.6580   33.9550   12.6180 C.3    11  SER11       0.2020
     15  C          9.7710   32.4300   12.7640 C.2    11  SER11       0.2619
     16  O         10.6880   31.8160   12.2310 O.2    11  SER11      -0.2717
     17  CB         9.0440   34.3120   11.2630 C.3    11  SER11       0.2103
     18  OG         7.7300   33.8040   11.1480 O.3    11  SER11      -0.2182
     19  N          8.8420   31.8360   13.5100 N.am   12  TYR12      -0.1961
     20  CA         8.8070   30.3810   13.6960 C.3    12  TYR12       0.1771
     21  C          7.4080   29.9950   14.1750 C.2    12  TYR12       0.2620
     22  O          6.7390   30.7770   14.8530 O.2    12  TYR12      -0.2715
     23  CB         9.8850   29.9170   14.6950 C.3    12  TYR12       0.0574
     24  CG         9.7180   30.3720   16.1360 C.ar   12  TYR12      -0.0198
     25  CD1        8.7310   29.8230   16.9590 C.ar   12  TYR12      -0.0009
     26  CD2       10.5700   31.3350   16.6840 C.ar   12  TYR12      -0.0009
     27  CE1        8.5970   30.2210   18.2920 C.ar   12  TYR12       0.0417
     28  CE2       10.4470   31.7380   18.0160 C.ar   12  TYR12       0.0417
     29  CZ         9.4580   31.1780   18.8120 C.ar   12  TYR12       0.1957
     30  OH         9.3250   31.5820   20.1220 O.3    12  TYR12      -0.2866
     31  N          6.9620   28.8010   13.7950 N.am   13  GLY13      -0.1940
     32  CA         5.6430   28.3330   14.1920 C.3    13  GLY13       0.2014
     33  C          4.5300   29.2490   13.7170 C.2    13  GLY13       0.2639
     34  O          4.6660   29.9230   12.6880 O.2    13  GLY13      -0.2714
     35  N          3.4270   29.2750   14.4620 N.am   14  GLU14      -0.1963
     36  CA         2.2880   30.1280   14.1150 C.3    14  GLU14       0.1733
     37  C          2.4910   31.4830   14.7810 C.2    14  GLU14       0.2616
     38  O          2.8840   31.5630   15.9440 O.2    14  GLU14      -0.2715
     39  CB         0.9760   29.5450   14.6290 C.3    14  GLU14       0.0429
     40  CG         0.7590   28.0780   14.3540 C.3    14  GLU14       0.1163
     41  CD        -0.6580   27.6520   14.6900 C.2    14  GLU14       0.3649
     42  OE1       -1.5870   28.0760   13.9690 O.co2  14  GLU14      -0.2457
     43  OE2       -0.8430   26.9100   15.6780 O.co2  14  GLU14      -0.2457
     44  N          2.2070   32.5450   14.0410 N.am   15  MET15      -0.1963
     45  CA         2.3510   33.8880   14.5740 C.3    15  MET15       0.1736
     46  C          1.0530   34.6380   14.3350 C.2    15  MET15       0.2616
     47  O          0.3260   34.3520   13.3910 O.2    15  MET15      -0.2715
     48  CB         3.5320   34.5870   13.9390 C.3    15  MET15       0.0427
     49  CG         4.8600   33.9490   14.3010 C.3    15  MET15       0.0599
     50  SD         6.2770   34.8730   13.6460 S.3    15  MET15      -0.1393
     51  CE         6.2120   36.3520   14.6470 C.3    15  MET15       0.0692
     52  N          0.7590   35.5880   15.2130 N.am   16  ILE16      -0.1963
     53  CA        -0.4710   36.3680   15.1030 C.3    16  ILE16       0.1727
     54  C         -0.0780   37.8350   14.8960 C.2    16  ILE16       0.2617
     55  O          0.9220   38.2990   15.4430 O.2    16  ILE16      -0.2715
     56  CB        -1.3400   36.1740   16.3800 C.3    16  ILE16       0.0290
     57  CG1       -2.6850   36.8940   16.2240 C.3    16  ILE16       0.0022
     58  CG2       -0.5800   36.6600   17.6080 C.3    16  ILE16       0.0023
     59  CD1       -3.7320   36.4700   17.2540 C.3    16  ILE16       0.0001
     60  N         -0.8460   38.5490   14.0790 N.am   17  GLY17      -0.1940
     61  CA        -0.5330   39.9420   13.8130 C.3    17  GLY17       0.2014
     62  C         -1.4660   40.8950   14.5320 C.2    17  GLY17       0.2639
     63  O         -2.6830   40.7140   14.5070 O.2    17  GLY17      -0.2714
     64  N         -0.8960   41.9140   15.1660 N.am   18  CYS18      -0.1953
     65  CA        -1.6850   42.8990   15.9020 C.3    18  CYS18       0.1843
     66  C         -2.6050   43.6460   14.9160 C.2    18  CYS18       0.2625
     67  O         -2.1720   44.1040   13.8580 O.2    18  CYS18      -0.2714
     68  CB        -0.7610   43.8860   16.6100 C.3    18  CYS18       0.0997
     69  SG        -1.6260   44.9980   17.7300 S.3    18  CYS18      -0.0797
     70  N         -3.8710   43.7820   15.2860 N.am   19  ASP19      -0.1971
     71  CA        -4.8330   44.4450   14.4190 C.3    19  ASP19       0.1709
     72  C         -4.7010   45.9770   14.4610 C.2    19  ASP19       0.2293
     73  O         -5.5050   46.6880   13.8600 O.2    19  ASP19      -0.2864
     74  CB        -6.2420   43.9750   14.7670 C.3    19  ASP19       0.1436
     75  CG        -6.5530   42.6180   14.1570 C.2    19  ASP19       0.3671
     76  OD1       -7.2520   41.8110   14.7980 O.co2  19  ASP19      -0.2456
     77  OD2       -6.0900   42.3670   13.0230 O.co2  19  ASP19      -0.2456
     78  N          3.8820   44.2050   15.3590 N.3    26  GLU26      -0.1231
     79  CA         2.8800   43.5310   14.5170 C.3    26  GLU26       0.1699
     80  C          2.8060   42.0140   14.7360 C.2    26  GLU26       0.2592
     81  O          1.7780   41.5050   15.1750 O.2    26  GLU26      -0.2718
     82  CB         3.0950   43.7880   13.0160 C.3    26  GLU26       0.0402
     83  CG         2.1340   42.9280   12.1770 C.3    26  GLU26       0.1161
     84  CD         2.1530   43.2060   10.6820 C.2    26  GLU26       0.3649
     85  OE1        3.1760   43.6940   10.1520 O.co2  26  GLU26      -0.2457
     86  OE2        1.1280   42.9040   10.0300 O.co2  26  GLU26      -0.2457
     87  N          3.8750   41.2890   14.4180 N.am   27  TRP27      -0.1976
     88  CA         3.8370   39.8200   14.5390 C.3    27  TRP27       0.1640
     89  C          4.4420   39.3140   15.8370 C.2    27  TRP27       0.2290
     90  O          5.5220   39.7440   16.2520 O.2    27  TRP27      -0.2864
     91  CB         4.5570   39.1730   13.3580 C.3    27  TRP27       0.0576
     92  CG         3.8940   39.4540   12.0550 C.ar   27  TRP27       0.0006
     93  CD1        4.2670   40.3830   11.1270 C.ar   27  TRP27       0.0946
     94  CD2        2.7230   38.8120   11.5340 C.ar   27  TRP27       0.0152
     95  NE1        3.4030   40.3570   10.0580 N.ar   27  TRP27      -0.2442
     96  CE2        2.4450   39.4030   10.2820 C.ar   27  TRP27       0.0810
     97  CE3        1.8800   37.7930   12.0050 C.ar   27  TRP27       0.0012
     98  CZ2        1.3590   39.0090    9.4920 C.ar   27  TRP27       0.0191
     99  CZ3        0.8010   37.4020   11.2210 C.ar   27  TRP27       0.0001
    100  CH2        0.5500   38.0100    9.9770 C.ar   27  TRP27       0.0015
    101  N          2.8660   32.6780   18.8800 N.3    30  PHE30      -0.1241
    102  CA         1.7200   32.2640   19.7090 C.3    30  PHE30       0.1605
    103  C          2.1460   32.0640   21.1600 C.2    30  PHE30       0.2264
    104  O          1.4930   32.5610   22.0720 O.2    30  PHE30      -0.2867
    105  CB         1.1060   30.9540   19.2070 C.3    30  PHE30       0.0534
    106  CG         0.0000   31.1300   18.1970 C.ar   30  PHE30      -0.0203
    107  CD1       -0.9960   30.1650   18.0790 C.ar   30  PHE30      -0.0042
    108  CD2       -0.0360   32.2340   17.3510 C.ar   30  PHE30      -0.0042
    109  CE1       -2.0100   30.2950   17.1330 C.ar   30  PHE30      -0.0003
    110  CE2       -1.0460   32.3730   16.4000 C.ar   30  PHE30      -0.0003
    111  CZ        -2.0350   31.4040   16.2910 C.ar   30  PHE30      -0.0000
    112  N         -5.8800   30.0510   17.0350 N.3    38  LYS38      -0.1231
    113  CA        -6.1510   31.3120   16.3460 C.3    38  LYS38       0.1678
    114  C         -7.3670   31.9530   17.0070 C.2    38  LYS38       0.2434
    115  O         -8.4510   31.3750   17.0190 O.2    38  LYS38      -0.2733
    116  CB        -6.4550   31.0270   14.8730 C.3    38  LYS38       0.0284
    117  CG        -6.6960   32.2480   14.0010 C.3    38  LYS38       0.0035
    118  CD        -7.3210   31.8210   12.6770 C.3    38  LYS38       0.0206
    119  CE        -7.4030   32.9620   11.6810 C.3    38  LYS38       0.1093
    120  NZ        -6.0710   33.3020   11.1140 N.3    38  LYS38      -0.1314
    121  N         -7.1980   33.1490   17.5840 N.am   39  PRO39      -0.2718
    122  CA        -8.3290   33.8150   18.2320 C.3    39  PRO39       0.1535
    123  C         -9.4160   34.1500   17.2140 C.2    39  PRO39       0.2598
    124  O         -9.1620   34.2150   16.0140 O.2    39  PRO39      -0.2715
    125  CB        -7.6990   35.0760   18.8180 C.3    39  PRO39       0.0310
    126  CG        -6.2880   34.6640   19.0790 C.3    39  PRO39       0.0237
    127  CD        -5.9430   33.8740   17.8420 C.3    39  PRO39       0.0939
    128  N        -10.6330   34.3470   17.6970 N.am   40  LYS40      -0.1964
    129  CA       -11.7250   34.7060   16.8140 C.3    40  LYS40       0.1728
    130  C        -11.9070   36.2180   16.9620 C.2    40  LYS40       0.2616
    131  O        -11.9020   36.7410   18.0770 O.2    40  LYS40      -0.2715
    132  CB       -13.0030   33.9660   17.2200 C.3    40  LYS40       0.0311
    133  CG       -14.2150   34.2880   16.3590 C.3    40  LYS40       0.0038
    134  CD       -13.9670   33.9540   14.8940 C.3    40  LYS40       0.0206
    135  CE       -15.1920   34.2630   14.0420 C.3    40  LYS40       0.1093
    136  NZ       -14.9600   33.9620   12.5990 N.3    40  LYS40      -0.1314
    137  N        -12.0390   36.9210   15.8430 N.am   41  GLY41      -0.1955
    138  CA       -12.2120   38.3600   15.9120 C.3    41  GLY41       0.1869
    139  C        -10.8990   39.1220   15.9360 C.2    41  GLY41       0.2309
    140  O         -9.8590   38.5900   15.5650 O.2    41  GLY41      -0.2863
    141  N         -7.5570   41.0240   17.4010 N.3    43  TRP43      -0.1241
    142  CA        -6.5730   40.6970   18.4270 C.3    43  TRP43       0.1605
    143  C         -5.5510   41.8340   18.4750 C.2    43  TRP43       0.2264
    144  O         -5.0670   42.2860   17.4420 O.2    43  TRP43      -0.2867
    145  CB        -5.8510   39.3820   18.1090 C.3    43  TRP43       0.0550
    146  CG        -4.8170   39.0300   19.1440 C.ar   43  TRP43       0.0003
    147  CD1       -5.0290   38.3870   20.3300 C.ar   43  TRP43       0.0946
    148  CD2       -3.4230   39.3700   19.1150 C.ar   43  TRP43       0.0152
    149  NE1       -3.8550   38.3060   21.0440 N.ar   43  TRP43      -0.2442
    150  CE2       -2.8540   38.9030   20.3230 C.ar   43  TRP43       0.0810
    151  CE3       -2.5990   40.0270   18.1860 C.ar   43  TRP43       0.0012
    152  CZ2       -1.4960   39.0690   20.6270 C.ar   43  TRP43       0.0191
    153  CZ3       -1.2480   40.1930   18.4880 C.ar   43  TRP43       0.0001
    154  CH2       -0.7110   39.7140   19.7000 C.ar   43  TRP43       0.0015
@<TRIPOS>BOND
     1    12    11    1
     2    98   100   ar
     3    98    96   ar
     4   100    99   ar
     5    86    84   ar
     6    95    96   ar
     7    95    93   ar
     8    85    84   ar
     9    11    10   ar
    10    11     9   ar
    11    96    94   ar
    12    84    83    1
    13    10     8   ar
    14     9     7   ar
    15   120   119    1
    16    93    92   ar
    17    18    17    1
    18    99    97   ar
    19    17    14    1
    20    94    97   ar
    21    94    92   ar
    22   119   118    1
    23    92    91    1
    24    83    82    1
    25     8     6   ar
    26    16    15    2
    27     7     6   ar
    28   136   135    1
    29    14    13    1
    30    14    15    1
    31   118   117    1
    32    34    33    2
    33    15    19   am
    34     6     5    1
    35    82    79    1
    36    77    75   ar
    37    91    88    1
    38    47    46    2
    39    19    20    1
    40    50    49    1
    41    50    51    1
    42    20    21    1
    43    20    23    1
    44    33    32    1
    45    33    35   am
    46    31    21   am
    47    31    32    1
    48    61    60    1
    49    61    62    1
    50    67    66    2
    51    73    72    2
    52    48    49    1
    53    48    45    1
    54    42    41   ar
    55   117   116    1
    56    44    45    1
    57    44    37   am
    58   135   134    1
    59    60    54   am
    60    36    35    1
    61    36    39    1
    62    36    37    1
    63    75    74    1
    64    75    76   ar
    65    21    22    2
    66    46    45    1
    67    46    52   am
    68    40    39    1
    69    40    41    1
    70    87    88    1
    71    87    80   am
    72    71    72    1
    73    71    74    1
    74    71    70    1
    75     5     2    1
    76    63    62    2
    77    79    80    1
    78    79    78    1
    79    62    64   am
    80    88    89    1
    81    41    43   ar
    82    23    24    1
    83    80    81    2
    84    37    38    2
    85   116   113    1
    86   134   133    1
    87    54    53    1
    88    54    55    2
    89    66    70   am
    90    66    65    1
    91     1     2    1
    92    53    52    1
    93    53    56    1
    94    64    65    1
    95     2     3    1
    96   140   139    2
    97    89    90    2
    98   137   138    1
    99   137   130   am
   100    65    68    1
   101   138   139    1
   102   124   123    2
   103    24    26   ar
   104    24    25   ar
   105    57    56    1
   106    57    59    1
   107   111   110   ar
   108   111   109   ar
   109   113   114    1
   110   113   112    1
   111   133   132    1
   112    56    58    1
   113   110   108   ar
   114    68    69    1
   115    26    28   ar
   116     3     4    2
   117   129   130    1
   118   129   132    1
   119   129   128    1
   120    25    27   ar
   121   130   131    2
   122   114   115    2
   123   114   121   am
   124   109   107   ar
   125   123   128   am
   126   123   122    1
   127   108   106   ar
   128   141   142    1
   129   144   143    2
   130   121   127    1
   131   121   122    1
   132   127   126    1
   133    28    29   ar
   134   107   106   ar
   135   145   142    1
   136   145   146    1
   137   151   153   ar
   138   151   148   ar
   139   106   105    1
   140   122   125    1
   141    27    29   ar
   142   142   143    1
   143   153   154   ar
   144    29    30    1
   145   125   126    1
   146   101   102    1
   147   148   146   ar
   148   148   150   ar
   149   146   147   ar
   150   105   102    1
   151   154   152   ar
   152   102   103    1
   153   150   152   ar
   154   150   149   ar
   155   147   149   ar
   156   103   104    2
