@<TRIPOS>MOLECULE
tmp/2g6wA00.pdb
 126 116 0 0 0
SMALL
GASTEIGER

@<TRIPOS>ATOM
      1  N         11.7700   -8.8300   45.2080 N.3    46  ASN46      -0.1240
      2  CA        10.6590   -8.3040   46.0030 C.3    46  ASN46       0.1653
      3  C          9.6480   -9.3890   46.3650 C.2    46  ASN46       0.2266
      4  O          8.5900   -9.1210   46.9160 O.2    46  ASN46      -0.2867
      5  CB         9.9420   -7.1740   45.2300 C.3    46  ASN46       0.1155
      6  CG        10.7850   -5.9100   45.1100 C.2    46  ASN46       0.2627
      7  OD1       11.8580   -5.7540   45.7390 O.2    46  ASN46      -0.2716
      8  ND2       10.2480   -4.9430   44.3740 N.am   46  ASN46      -0.0877
      9  N         -1.3740   -3.2430   36.7510 N.3   106  SER106     -0.1202
     10  CA        -0.1350   -2.9450   37.4960 C.3   106  SER106      0.2020
     11  C         -0.4390   -1.8200   38.4970 C.2   106  SER106      0.2619
     12  O         -1.5230   -1.1560   38.4080 O.2   106  SER106     -0.2717
     13  CB         0.9550   -2.4370   36.5300 C.3   106  SER106      0.2103
     14  OG         0.5920   -1.1350   36.0550 O.3   106  SER106     -0.2182
     15  N          0.4630   -1.6240   39.4680 N.am  107  GLY107     -0.1942
     16  CA         0.3320   -0.5210   40.4360 C.3   107  GLY107      0.2014
     17  C          0.4120    0.8760   39.8170 C.2   107  GLY107      0.2638
     18  O         -0.3480    1.7460   40.1980 O.2   107  GLY107     -0.2714
     19  N          1.3430    1.0880   38.8840 N.am  108  PHE108     -0.1973
     20  CA         1.4750    2.3170   38.1220 C.3   108  PHE108      0.1639
     21  C          0.1510    2.6510   37.4530 C.2   108  PHE108      0.2290
     22  O         -0.2980    3.8050   37.4460 O.2   108  PHE108     -0.2864
     23  CB         2.4990    2.1230   36.9770 C.3   108  PHE108      0.0560
     24  CG         3.8520    2.7680   37.2160 C.ar  108  PHE108     -0.0200
     25  CD1        4.9160    2.0240   37.7500 C.ar  108  PHE108     -0.0042
     26  CD2        4.0640    4.1030   36.9050 C.ar  108  PHE108     -0.0042
     27  CE1        6.1860    2.6200   37.9560 C.ar  108  PHE108     -0.0003
     28  CE2        5.3260    4.7180   37.0960 C.ar  108  PHE108     -0.0003
     29  CZ         6.3830    3.9980   37.6090 C.ar  108  PHE108     -0.0000
     30  N         -2.3750    3.5210   40.4110 N.3   111  ASN111     -0.1240
     31  CA        -2.0830    4.8690   40.9590 C.3   111  ASN111      0.1653
     32  C         -2.4290    5.9910   39.9780 C.2   111  ASN111      0.2266
     33  O         -3.1140    6.9700   40.3560 O.2   111  ASN111     -0.2867
     34  CB        -0.6280    5.0020   41.4840 C.3   111  ASN111      0.1155
     35  CG        -0.3990    4.2410   42.7600 C.2   111  ASN111      0.2627
     36  OD1       -1.3100    4.0990   43.5710 O.2   111  ASN111     -0.2716
     37  ND2        0.7980    3.7170   42.9450 N.am  111  ASN111     -0.0877
     38  N          6.8840    6.7160   46.1720 N.3   132  HIS132     -0.1241
     39  CA         7.2510    6.0230   44.9360 C.3   132  HIS132      0.1621
     40  C          7.0640    6.8100   43.6500 C.2   132  HIS132      0.2264
     41  O          6.0790    7.5200   43.4900 O.2   132  HIS132     -0.2867
     42  CB         6.3670    4.7970   44.8100 C.3   132  HIS132      0.0745
     43  CG         6.8730    3.8050   43.8240 C.ar  132  HIS132      0.0817
     44  ND1        6.2730    3.6040   42.5980 N.ar  132  HIS132     -0.2268
     45  CD2        7.9340    2.9640   43.8800 C.ar  132  HIS132      0.1154
     46  CE1        6.9360    2.6650   41.9470 C.ar  132  HIS132      0.1986
     47  NE2        7.9500    2.2620   42.7000 N.ar  132  HIS132     -0.2212
     48  N          5.7380    6.0780   40.8420 N.3   134  SER134     -0.1217
     49  CA         4.3630    5.9530   40.3030 C.3   134  SER134      0.1889
     50  C          3.3460    6.9270   40.8900 C.2   134  SER134      0.2288
     51  O          2.5100    7.4740   40.1510 O.2   134  SER134     -0.2866
     52  CB         3.8170    4.5280   40.4380 C.3   134  SER134      0.2089
     53  OG         3.7440    4.1390   41.7890 O.3   134  SER134     -0.2183
     54  N          2.8500    5.8610   51.6620 N.3   174  GLU174     -0.1245
     55  CA         2.9980    4.4120   51.4620 C.3   174  GLU174      0.1567
     56  C          2.8230    3.7590   52.7970 C.2   174  GLU174      0.2260
     57  O          3.0650    4.3990   53.8180 O.2   174  GLU174     -0.2867
     58  CB         4.3880    4.0830   50.8780 C.3   174  GLU174      0.0388
     59  CG         4.7480    4.7800   49.5230 C.3   174  GLU174      0.1160
     60  CD         6.0050    4.2040   48.8310 C.2   174  GLU174      0.3649
     61  OE1        6.2090    2.9850   48.9180 O.co2 174  GLU174     -0.2457
     62  OE2        6.8090    4.9460   48.2070 O.co2 174  GLU174     -0.2457
     63  N          9.2020    2.1160   49.8870 N.3   178  SER178     -0.1217
     64  CA        10.0920    1.5460   48.9200 C.3   178  SER178      0.1889
     65  C         11.5500    1.5610   49.1930 C.2   178  SER178      0.2288
     66  O         12.2090    0.5470   49.0120 O.2   178  SER178     -0.2866
     67  CB         9.9220    2.2520   47.5870 C.3   178  SER178      0.2089
     68  OG         9.1180    1.4020   46.8590 O.3   178  SER178     -0.2183
     69  N         -0.6230    3.6170   49.3820 N.3   203  ASP203     -0.1239
     70  CA        -0.0680    2.5710   48.5090 C.3   203  ASP203      0.1674
     71  C          0.6620    1.6010   49.4020 C.2   203  ASP203      0.2266
     72  O          1.6860    1.9470   49.9690 O.2   203  ASP203     -0.2867
     73  CB         0.8920    3.1990   47.5210 C.3   203  ASP203      0.1410
     74  CG         1.6210    2.1720   46.6510 C.2   203  ASP203      0.3668
     75  OD1        1.8290    1.0160   47.0350 O.co2 203  ASP203     -0.2456
     76  OD2        2.0320    2.5390   45.5690 O.co2 203  ASP203     -0.2456
     77  N          2.0200   -1.3800   48.5680 N.3   205  ALA205     -0.1231
     78  CA         2.7500   -2.3650   47.7760 C.3   205  ALA205      0.1694
     79  C          3.6910   -3.1960   48.6330 C.2   205  ALA205      0.2592
     80  O          3.8740   -4.3930   48.3840 O.2   205  ALA205     -0.2718
     81  CB         3.5620   -1.6850   46.6680 C.3   205  ALA205      0.0304
     82  N          4.3150   -2.6010   49.6430 N.am  206  HIS206     -0.1976
     83  CA         5.4220   -3.3090   50.2800 C.3   206  HIS206      0.1656
     84  C          4.9810   -3.9430   51.5540 C.2   206  HIS206      0.2291
     85  O          5.6730   -4.8300   52.0710 O.2   206  HIS206     -0.2864
     86  CB         6.6550   -2.4580   50.4010 C.3   206  HIS206      0.0771
     87  CG         7.2520   -2.1350   49.0800 C.ar  206  HIS206      0.0820
     88  ND1        8.1120   -2.9800   48.4220 N.ar  206  HIS206     -0.2267
     89  CD2        7.0450   -1.0890   48.2450 C.ar  206  HIS206      0.1154
     90  CE1        8.4590   -2.4300   47.2680 C.ar  206  HIS206      0.1986
     91  NE2        7.8280   -1.2740   47.1470 N.ar  206  HIS206     -0.2212
     92  N         -0.5330   -3.8020   45.4110 N.3   232  THR232     -0.1218
     93  CA        -0.0340   -4.4050   44.1690 C.3   232  THR232      0.1862
     94  C          0.5230   -5.8180   44.4780 C.2   232  THR232      0.2287
     95  O          0.8010   -6.1390   45.6350 O.2   232  THR232     -0.2866
     96  CB         1.0930   -3.6180   43.5770 C.3   232  THR232      0.1770
     97  OG1        2.2270   -3.8820   44.3820 O.3   232  THR232     -0.2211
     98  CG2        0.8130   -2.0690   43.6320 C.3   232  THR232      0.0375
     99  N          2.9070   -7.7800   42.6730 N.3   234  GLY234     -0.1210
    100  CA         4.1880   -8.2440   42.1610 C.3   234  GLY234      0.1956
    101  C          5.2490   -8.3320   43.2280 C.2   234  GLY234      0.2611
    102  O          6.4230   -8.5720   42.9220 O.2   234  GLY234     -0.2717
    103  N          4.8730   -8.1260   44.4830 N.am  235  LYS235     -0.1979
    104  CA         5.8790   -8.1550   45.5400 C.3   235  LYS235      0.1596
    105  C          5.6090   -9.3960   46.3780 C.2   235  LYS235      0.2287
    106  O          5.7860  -10.5000   45.8820 O.2   235  LYS235     -0.2864
    107  CB         5.9360   -6.8120   46.3010 C.3   235  LYS235      0.0298
    108  CG         6.7170   -5.7120   45.5410 C.3   235  LYS235      0.0038
    109  CD         5.8790   -4.5800   45.1130 C.3   235  LYS235      0.0206
    110  CE         6.7120   -3.4280   44.5250 C.3   235  LYS235      0.1093
    111  NZ         7.5250   -3.7400   43.2790 N.3   235  LYS235     -0.1314
    112  N          0.1730   -7.1990   38.8990 N.3   241  GLY241     -0.1225
    113  CA        -1.1450   -6.5590   38.9070 C.3   241  GLY241      0.1811
    114  C         -1.4430   -5.7690   40.1920 C.2   241  GLY241      0.2280
    115  O         -0.5960   -5.6510   41.0670 O.2   241  GLY241     -0.2866
    116  N         20.6560   -2.0930   49.0930 N.3   360  ARG360     -0.1245
    117  CA        19.2290   -2.2280   49.4140 C.3   360  ARG360      0.1563
    118  C         18.8960   -3.7210   49.5000 C.2   360  ARG360      0.2260
    119  O         18.5490   -4.3520   48.5070 O.2   360  ARG360     -0.2867
    120  CB        18.3880   -1.5700   48.3270 C.3   360  ARG360      0.0307
    121  CG        16.9670   -1.1710   48.7510 C.3   360  ARG360      0.0489
    122  CD        16.0230   -1.3600   47.5450 C.3   360  ARG360      0.2205
    123  NE        14.5870   -1.2600   47.8510 N.pl3 360  ARG360     -0.0865
    124  CZ        13.7040   -2.2310   47.6750 C.cat 360  ARG360      0.5346
    125  NH1       14.0770   -3.4150   47.1910 N.pl3 360  ARG360      0.1354
    126  NH2       12.4270   -2.0050   47.9660 N.pl3 360  ARG360      0.1354
@<TRIPOS>BOND
     1    14    13    1
     2    13    10    1
     3     9    10    1
     4    26    28   ar
     5    26    24   ar
     6    23    24    1
     7    23    20    1
     8    28    29   ar
     9    24    25   ar
    10    22    21    2
    11    21    20    1
    12    10    11    1
    13    29    27   ar
    14    25    27   ar
    15    20    19    1
    16    12    11    2
    17    11    15   am
    18    19    17   am
    19   112   113    1
    20   113   114    1
    21    15    16    1
    22    17    18    2
    23    17    16    1
    24    32    33    2
    25    32    31    1
    26    51    50    2
    27   114   115    2
    28    49    52    1
    29    49    48    1
    30    49    50    1
    31    30    31    1
    32    52    53    1
    33    31    34    1
    34    34    35    1
    35    46    44   ar
    36    46    47   ar
    37   100    99    1
    38   100   101    1
    39    44    43   ar
    40    47    45   ar
    41    35    37   am
    42    35    36    2
    43   102   101    2
    44   101   103   am
    45   111   110    1
    46    41    40    2
    47    96    98    1
    48    96    93    1
    49    96    97    1
    50    40    39    1
    51    43    45   ar
    52    43    42    1
    53    93    94    1
    54    93    92    1
    55     8     6   am
    56    94    95    2
    57   103   104    1
    58   110   109    1
    59    42    39    1
    60    39    38    1
    61     6     5    1
    62     6     7    2
    63   109   108    1
    64     1     2    1
    65     5     2    1
    66   104   107    1
    67   104   105    1
    68   108   107    1
    69    76    74   ar
    70   106   105    2
    71     2     3    1
    72     3     4    2
    73    74    75   ar
    74    74    73    1
    75    81    78    1
    76    68    67    1
    77    91    90   ar
    78    91    89   ar
    79   125   124    1
    80    90    88   ar
    81    73    70    1
    82   122   123    1
    83   122   121    1
    84    67    64    1
    85   124   123    2
    86   124   126    1
    87    78    77    1
    88    78    79    1
    89    62    60   ar
    90    89    87   ar
    91   120   121    1
    92   120   117    1
    93    80    79    2
    94    88    87   ar
    95   119   118    2
    96    70    69    1
    97    70    71    1
    98    79    82   am
    99    60    61   ar
   100    60    59    1
   101    64    65    1
   102    64    63    1
   103    66    65    2
   104    87    86    1
   105   116   117    1
   106    71    72    2
   107   117   118    1
   108    59    58    1
   109    82    83    1
   110    83    86    1
   111    83    84    1
   112    58    55    1
   113    55    54    1
   114    55    56    1
   115    84    85    2
   116    56    57    2
