@<TRIPOS>MOLECULE
tmp/2g70B01.pdb
 159 148 0 0 0
SMALL
GASTEIGER

@<TRIPOS>ATOM
      1  N         36.5980   58.0520  -25.3310 N.3    20  TYR20      -0.1241
      2  CA        35.1910   57.7840  -25.5960 C.3    20  TYR20       0.1605
      3  C         34.4800   57.5850  -24.2580 C.2    20  TYR20       0.2264
      4  O         33.5720   58.3390  -23.9190 O.2    20  TYR20      -0.2867
      5  CB        35.0520   56.5300  -26.4520 C.3    20  TYR20       0.0534
      6  CG        33.6230   56.1520  -26.7390 C.ar   20  TYR20      -0.0201
      7  CD1       32.7930   56.9980  -27.4670 C.ar   20  TYR20      -0.0009
      8  CD2       33.0880   54.9570  -26.2570 C.ar   20  TYR20      -0.0009
      9  CE1       31.4590   56.6640  -27.7050 C.ar   20  TYR20       0.0417
     10  CE2       31.7610   54.6120  -26.4870 C.ar   20  TYR20       0.0417
     11  CZ        30.9480   55.4680  -27.2090 C.ar   20  TYR20       0.1957
     12  OH        29.6240   55.1350  -27.4300 O.3    20  TYR20      -0.2866
     13  N         31.2280   59.8600  -22.8180 N.3    24  ASN24      -0.1225
     14  CA        29.8670   59.3460  -22.7550 C.3    24  ASN24       0.1785
     15  C         29.4680   58.6090  -21.4850 C.2    24  ASN24       0.2597
     16  O         28.2910   58.5900  -21.1290 O.2    24  ASN24      -0.2718
     17  CB        29.6200   58.4470  -23.9710 C.3    24  ASN24       0.1169
     18  CG        29.7780   59.2000  -25.2830 C.2    24  ASN24       0.2627
     19  OD1       29.0360   60.1420  -25.5580 O.2    24  ASN24      -0.2716
     20  ND2       30.7510   58.7930  -26.0920 N.am   24  ASN24      -0.0877
     21  N         30.4350   58.0230  -20.7880 N.am   25  TYR25      -0.1976
     22  CA        30.0960   57.2750  -19.5960 C.3    25  TYR25       0.1639
     23  C         30.6590   57.7690  -18.2680 C.2    25  TYR25       0.2290
     24  O         30.6420   57.0600  -17.2550 O.2    25  TYR25      -0.2864
     25  CB        30.4030   55.8060  -19.8520 C.3    25  TYR25       0.0560
     26  CG        29.6170   55.3060  -21.0440 C.ar   25  TYR25      -0.0198
     27  CD1       30.1930   55.2370  -22.3040 C.ar   25  TYR25      -0.0009
     28  CD2       28.2630   55.0010  -20.9260 C.ar   25  TYR25      -0.0009
     29  CE1       29.4420   54.8800  -23.4260 C.ar   25  TYR25       0.0417
     30  CE2       27.4980   54.6440  -22.0410 C.ar   25  TYR25       0.0417
     31  CZ        28.0960   54.5890  -23.2910 C.ar   25  TYR25       0.1957
     32  OH        27.3370   54.2780  -24.4030 O.3    25  TYR25      -0.2866
     33  N         27.2640   62.9540  -18.2430 N.3    29  ARG29      -0.1245
     34  CA        26.4330   61.9160  -18.8560 C.3    29  ARG29       0.1563
     35  C         26.4240   60.6300  -18.0260 C.2    29  ARG29       0.2260
     36  O         25.3950   59.9660  -17.9100 O.2    29  ARG29      -0.2867
     37  CB        26.9080   61.6080  -20.2780 C.3    29  ARG29       0.0307
     38  CG        26.6360   62.7380  -21.2520 C.3    29  ARG29       0.0489
     39  CD        27.0090   62.3780  -22.6900 C.3    29  ARG29       0.2205
     40  NE        26.6950   63.4770  -23.6040 N.pl3  29  ARG29      -0.0865
     41  CZ        26.8170   63.4190  -24.9240 C.cat  29  ARG29       0.5346
     42  NH1       27.2530   62.3130  -25.5120 N.pl3  29  ARG29       0.1354
     43  NH2       26.4860   64.4720  -25.6620 N.pl3  29  ARG29       0.1354
     44  N         20.4960   60.7040  -19.2460 N.3    38  VAL38      -0.1245
     45  CA        20.4300   59.7170  -20.3060 C.3    38  VAL38       0.1561
     46  C         20.8170   58.3220  -19.8040 C.2    38  VAL38       0.2260
     47  O         20.3170   57.3150  -20.3070 O.2    38  VAL38      -0.2867
     48  CB        21.3540   60.1330  -21.4810 C.3    38  VAL38       0.0252
     49  CG1       22.7960   60.1860  -21.0120 C.3    38  VAL38       0.0019
     50  CG2       21.2000   59.1710  -22.6520 C.3    38  VAL38       0.0019
     51  N         18.4860   54.9880  -20.3310 N.3    42  LYS42      -0.1245
     52  CA        18.8690   53.8200  -21.1120 C.3    42  LYS42       0.1561
     53  C         18.6820   52.5660  -20.2680 C.2    42  LYS42       0.2260
     54  O         18.0480   51.6200  -20.7160 O.2    42  LYS42      -0.2867
     55  CB        20.3170   53.9210  -21.5790 C.3    42  LYS42       0.0271
     56  CG        20.5220   54.8180  -22.7920 C.3    42  LYS42       0.0035
     57  CD        22.0060   54.9410  -23.1260 C.3    42  LYS42       0.0206
     58  CE        22.7700   55.6160  -21.9800 C.3    42  LYS42       0.1093
     59  NZ        24.2440   55.6920  -22.2260 N.3    42  LYS42      -0.1314
     60  N         26.9480   52.1010  -13.0550 N.3   111  TYR111     -0.1241
     61  CA        25.8690   51.6390  -13.9240 C.3   111  TYR111      0.1605
     62  C         25.2680   50.3630  -13.3430 C.2   111  TYR111      0.2264
     63  O         24.0420   50.1980  -13.3280 O.2   111  TYR111     -0.2867
     64  CB        26.3800   51.3950  -15.3480 C.3   111  TYR111      0.0534
     65  CG        26.5270   52.6710  -16.1480 C.ar  111  TYR111     -0.0201
     66  CD1       27.6050   53.5320  -15.9370 C.ar  111  TYR111     -0.0009
     67  CD2       25.5410   53.0610  -17.0580 C.ar  111  TYR111     -0.0009
     68  CE1       27.6900   54.7530  -16.6050 C.ar  111  TYR111      0.0417
     69  CE2       25.6140   54.2750  -17.7270 C.ar  111  TYR111      0.0417
     70  CZ        26.6890   55.1210  -17.4910 C.ar  111  TYR111      0.1957
     71  OH        26.7340   56.3530  -18.0910 O.3   111  TYR111     -0.2866
     72  N         24.2760   52.4290  -30.1480 N.3   167  PHE167     -0.1241
     73  CA        25.1050   53.4150  -30.8280 C.3   167  PHE167      0.1605
     74  C         26.0990   52.8410  -31.8110 C.2   167  PHE167      0.2264
     75  O         27.2270   53.3240  -31.9010 O.2   167  PHE167     -0.2867
     76  CB        25.8500   54.2450  -29.8040 C.3   167  PHE167      0.0534
     77  CG        24.9550   54.9380  -28.8440 C.ar  167  PHE167     -0.0203
     78  CD1       24.8690   54.5120  -27.5280 C.ar  167  PHE167     -0.0042
     79  CD2       24.2140   56.0400  -29.2480 C.ar  167  PHE167     -0.0042
     80  CE1       24.0640   55.1780  -26.6200 C.ar  167  PHE167     -0.0003
     81  CE2       23.4090   56.7090  -28.3490 C.ar  167  PHE167     -0.0003
     82  CZ        23.3350   56.2770  -27.0280 C.ar  167  PHE167     -0.0000
     83  N         24.1850   53.4650  -36.8600 N.3   170  GLU170     -0.1231
     84  CA        24.2040   54.8430  -37.3450 C.3   170  GLU170      0.1699
     85  C         25.5340   55.5740  -37.1320 C.2   170  GLU170      0.2592
     86  O         25.7340   56.6770  -37.6520 O.2   170  GLU170     -0.2718
     87  CB        23.0730   55.6610  -36.7040 C.3   170  GLU170      0.0402
     88  CG        23.4210   56.2320  -35.3360 C.3   170  GLU170      0.1161
     89  CD        23.1980   55.2470  -34.1940 C.2   170  GLU170      0.3649
     90  OE1       23.1010   54.0130  -34.4340 O.co2 170  GLU170     -0.2457
     91  OE2       23.1310   55.7300  -33.0470 O.co2 170  GLU170     -0.2457
     92  N         26.4490   54.9770  -36.3800 N.am  171  ALA171     -0.1980
     93  CA        27.7280   55.6410  -36.1340 C.3   171  ALA171      0.1597
     94  C         28.8740   55.0740  -36.9630 C.2   171  ALA171      0.2287
     95  O         30.0070   55.5540  -36.8700 O.2   171  ALA171     -0.2864
     96  CB        28.0730   55.5720  -34.6500 C.3   171  ALA171      0.0319
     97  N         21.7110   57.0550  -31.5150 N.3   201  ALA201     -0.1245
     98  CA        21.6810   58.5010  -31.4890 C.3   201  ALA201      0.1562
     99  C         20.7560   58.9740  -32.5840 C.2   201  ALA201      0.2260
    100  O         20.6660   58.3580  -33.6480 O.2   201  ALA201     -0.2867
    101  CB        23.0860   59.0600  -31.7040 C.3   201  ALA201      0.0290
    102  N         22.3570   63.0540  -35.3450 N.3   204  GLU204     -0.1245
    103  CA        23.7090   63.3830  -34.9300 C.3   204  GLU204      0.1567
    104  C         24.6050   63.2840  -36.1710 C.2   204  GLU204      0.2260
    105  O         24.3460   62.4720  -37.0630 O.2   204  GLU204     -0.2867
    106  CB        24.1780   62.4010  -33.8410 C.3   204  GLU204      0.0388
    107  CG        25.6730   62.4880  -33.5270 C.3   204  GLU204      0.1160
    108  CD        26.1080   61.5950  -32.3860 C.2   204  GLU204      0.3649
    109  OE1       26.0620   62.0490  -31.2250 O.co2 204  GLU204     -0.2457
    110  OE2       26.4960   60.4390  -32.6520 O.co2 204  GLU204     -0.2457
    111  N         30.9710   62.8860  -33.4050 N.3   207  TYR207     -0.1241
    112  CA        31.2840   62.6760  -31.9960 C.3   207  TYR207      0.1605
    113  C         32.7880   62.4480  -31.8840 C.2   207  TYR207      0.2264
    114  O         33.4210   61.8870  -32.7900 O.2   207  TYR207     -0.2867
    115  CB        30.5100   61.4760  -31.4220 C.3   207  TYR207      0.0534
    116  CG        31.0180   60.1250  -31.8570 C.ar  207  TYR207     -0.0201
    117  CD1       31.9520   59.4290  -31.0940 C.ar  207  TYR207     -0.0009
    118  CD2       30.5960   59.5670  -33.0490 C.ar  207  TYR207     -0.0009
    119  CE1       32.4570   58.2050  -31.5270 C.ar  207  TYR207      0.0417
    120  CE2       31.0880   58.3600  -33.4880 C.ar  207  TYR207      0.0417
    121  CZ        32.0210   57.6780  -32.7280 C.ar  207  TYR207      0.1957
    122  OH        32.5060   56.4740  -33.1940 O.3   207  TYR207     -0.2866
    123  N         28.9810   60.7380  -38.4790 N.3   216  VAL216     -0.1245
    124  CA        27.7630   60.0030  -38.1730 C.3   216  VAL216      0.1561
    125  C         26.6470   60.3860  -39.1420 C.2   216  VAL216      0.2260
    126  O         26.4830   61.5630  -39.4740 O.2   216  VAL216     -0.2867
    127  CB        27.2760   60.3220  -36.7460 C.3   216  VAL216      0.0252
    128  CG1       26.0100   59.5290  -36.4290 C.3   216  VAL216      0.0019
    129  CG2       28.3770   60.0280  -35.7470 C.3   216  VAL216      0.0019
    130  N         17.9850   64.8470  -25.7100 N.3   243  MET243     -0.1245
    131  CA        19.1650   65.2780  -24.9640 C.3   243  MET243      0.1570
    132  C         18.9960   66.6960  -24.4050 C.2   243  MET243      0.2261
    133  O         18.8980   67.6630  -25.1580 O.2   243  MET243     -0.2867
    134  CB        20.4050   65.2110  -25.8700 C.3   243  MET243      0.0387
    135  CG        21.7310   65.1970  -25.1210 C.3   243  MET243      0.0595
    136  SD        21.9760   63.6740  -24.1620 S.3   243  MET243     -0.1393
    137  CE        22.1050   62.4770  -25.5160 C.3   243  MET243      0.0692
    138  N         29.8990   65.7730  -28.9940 N.3   252  ASP252     -0.1239
    139  CA        29.1260   65.4270  -30.1920 C.3   252  ASP252      0.1674
    140  C         28.0390   66.4780  -30.3870 C.2   252  ASP252      0.2266
    141  O         28.0950   67.5440  -29.7800 O.2   252  ASP252     -0.2867
    142  CB        28.5030   64.0340  -30.0260 C.3   252  ASP252      0.1410
    143  CG        27.7910   63.8640  -28.6880 C.2   252  ASP252      0.3668
    144  OD1       27.7960   62.7310  -28.1470 O.co2 252  ASP252     -0.2456
    145  OD2       27.2230   64.8570  -28.1790 O.co2 252  ASP252     -0.2456
    146  N         24.5000   65.2640  -30.7500 N.3   254  VAL254     -0.1245
    147  CA        23.2320   64.5390  -30.6480 C.3   254  VAL254      0.1561
    148  C         22.0520   65.3840  -30.2560 C.2   254  VAL254      0.2260
    149  O         22.1420   66.2370  -29.3720 O.2   254  VAL254     -0.2867
    150  CB        23.2520   63.3840  -29.6150 C.3   254  VAL254      0.0252
    151  CG1       23.4410   62.0590  -30.3190 C.3   254  VAL254      0.0019
    152  CG2       24.3040   63.6340  -28.5630 C.3   254  VAL254      0.0019
    153  N         18.2690   60.4070  -28.1570 N.3   257  VAL257     -0.1245
    154  CA        18.6150   58.9900  -28.1170 C.3   257  VAL257      0.1561
    155  C         17.3270   58.1700  -28.2640 C.2   257  VAL257      0.2260
    156  O         16.3060   58.4950  -27.6660 O.2   257  VAL257     -0.2867
    157  CB        19.3090   58.6210  -26.7930 C.3   257  VAL257      0.0252
    158  CG1       19.7110   57.1530  -26.8110 C.3   257  VAL257      0.0019
    159  CG2       20.5240   59.4970  -26.5800 C.3   257  VAL257      0.0019
@<TRIPOS>BOND
     1   126   125    2
     2   125   124    1
     3   123   124    1
     4   124   127    1
     5    86    85    2
     6    84    85    1
     7    84    83    1
     8    84    87    1
     9    85    92   am
    10   105   104    2
    11    94    95    2
    12    94    93    1
    13   127   128    1
    14   127   129    1
    15    87    88    1
    16    92    93    1
    17   104   103    1
    18    93    96    1
    19   102   103    1
    20    88    89    1
    21   103   106    1
    22    90    89   ar
    23    89    91   ar
    24   106   107    1
    25   100    99    2
    26   107   108    1
    27   120   118   ar
    28   120   121   ar
    29   111   112    1
    30   122   121    1
    31   118   116   ar
    32   114   113    2
    33   121   119   ar
    34   110   108   ar
    35    99    98    1
    36   108   109   ar
    37   112   113    1
    38   112   115    1
    39    75    74    2
    40   116   115    1
    41   116   117   ar
    42    74    73    1
    43   101    98    1
    44   119   117   ar
    45    97    98    1
    46    73    72    1
    47    73    76    1
    48   146   147    1
    49   147   148    1
    50   147   150    1
    51   140   139    1
    52   140   141    2
    53   151   150    1
    54   148   149    2
    55   139   142    1
    56   139   138    1
    57   142   143    1
    58    76    77    1
    59   150   152    1
    60    79    77   ar
    61    79    81   ar
    62    77    78   ar
    63   143   145   ar
    64   143   144   ar
    65    81    82   ar
    66   155   154    1
    67   155   156    2
    68   153   154    1
    69   154   157    1
    70     9     7   ar
    71     9    11   ar
    72    78    80   ar
    73     7     6   ar
    74    12    11    1
    75    11    10   ar
    76    82    80   ar
    77   158   157    1
    78   157   159    1
    79     6     5    1
    80     6     8   ar
    81    10     8   ar
    82     5     2    1
    83    20    18   am
    84   134   135    1
    85   134   131    1
    86   130   131    1
    87    43    41    1
    88     2     1    1
    89     2     3    1
    90    19    18    2
    91   137   136    1
    92    42    41    1
    93    18    17    1
    94   133   132    2
    95   135   136    1
    96   131   132    1
    97    41    40    2
    98    32    31    1
    99     3     4    2
   100    17    14    1
   101    40    39    1
   102    29    31   ar
   103    29    27   ar
   104    31    30   ar
   105    57    56    1
   106    57    58    1
   107    13    14    1
   108    56    55    1
   109    14    15    1
   110    39    38    1
   111    50    48    1
   112    27    26   ar
   113    59    58    1
   114    30    28   ar
   115    55    52    1
   116    15    16    2
   117    15    21   am
   118    48    49    1
   119    48    45    1
   120    38    37    1
   121    52    51    1
   122    52    53    1
   123    26    28   ar
   124    26    25    1
   125    21    22    1
   126    54    53    2
   127    47    46    2
   128    45    46    1
   129    45    44    1
   130    37    34    1
   131    25    22    1
   132    22    23    1
   133    34    33    1
   134    34    35    1
   135    23    24    2
   136    71    70    1
   137    35    36    2
   138    69    70   ar
   139    69    67   ar
   140    70    68   ar
   141    67    65   ar
   142    68    66   ar
   143    65    66   ar
   144    65    64    1
   145    64    61    1
   146    61    62    1
   147    61    60    1
   148    62    63    2
