@<TRIPOS>MOLECULE
tmp/2g71A01.pdb
 184 173 0 0 0
SMALL
GASTEIGER

@<TRIPOS>ATOM
      1  N         37.7640   48.7220   16.0440 N.3    15  TYR15      -0.1241
      2  CA        36.3470   48.4370   16.2390 C.3    15  TYR15       0.1605
      3  C         35.6430   48.3460   14.8850 C.2    15  TYR15       0.2264
      4  O         34.8760   47.4180   14.6300 O.2    15  TYR15      -0.2867
      5  CB        35.6940   49.5330   17.0740 C.3    15  TYR15       0.0534
      6  CG        34.2130   49.3350   17.2760 C.ar   15  TYR15      -0.0201
      7  CD1       33.7330   48.4330   18.2280 C.ar   15  TYR15      -0.0009
      8  CD2       33.2830   50.0560   16.5220 C.ar   15  TYR15      -0.0009
      9  CE1       32.3710   48.2590   18.4280 C.ar   15  TYR15       0.0417
     10  CE2       31.9110   49.8870   16.7150 C.ar   15  TYR15       0.0417
     11  CZ        31.4650   48.9910   17.6710 C.ar   15  TYR15       0.1957
     12  OH        30.1140   48.8480   17.9010 O.3    15  TYR15      -0.2866
     13  N         33.8940   44.8450   13.2230 N.3    19  ASN19      -0.1225
     14  CA        32.4550   44.7670   13.0070 C.3    19  ASN19       0.1785
     15  C         31.8640   45.3020   11.7070 C.2    19  ASN19       0.2597
     16  O         30.8030   44.8470   11.2860 O.2    19  ASN19      -0.2718
     17  CB        31.7430   45.4510   14.1760 C.3    19  ASN19       0.1169
     18  CG        32.1170   44.8520   15.5180 C.2    19  ASN19       0.2627
     19  OD1       31.6490   43.7690   15.8800 O.2    19  ASN19      -0.2716
     20  ND2       32.9730   45.5500   16.2620 N.am   19  ASN19      -0.0877
     21  N         32.5290   46.2530   11.0610 N.am   20  TYR20      -0.1976
     22  CA        31.9680   46.8250    9.8420 C.3    20  TYR20       0.1639
     23  C         32.6680   46.5000    8.5200 C.2    20  TYR20       0.2290
     24  O         32.2480   46.9660    7.4630 O.2    20  TYR20      -0.2864
     25  CB        31.7830   48.3350   10.0560 C.3    20  TYR20       0.0560
     26  CG        30.8240   48.5750   11.1990 C.ar   20  TYR20      -0.0198
     27  CD1       31.2510   48.5560   12.5240 C.ar   20  TYR20      -0.0009
     28  CD2       29.4580   48.6380   10.9650 C.ar   20  TYR20      -0.0009
     29  CE1       30.3230   48.5770   13.5840 C.ar   20  TYR20       0.0417
     30  CE2       28.5370   48.6500   12.0070 C.ar   20  TYR20       0.0417
     31  CZ        28.9690   48.6120   13.2990 C.ar   20  TYR20       0.1957
     32  OH        28.0210   48.5330   14.2860 O.3    20  TYR20      -0.2866
     33  N         31.4840   40.2940    8.6430 N.3    24  ARG24      -0.1245
     34  CA        30.2870   40.9220    9.1970 C.3    24  ARG24       0.1563
     35  C         29.8280   42.1320    8.4170 C.2    24  ARG24       0.2260
     36  O         28.6350   42.4270    8.3590 O.2    24  ARG24      -0.2867
     37  CB        30.5280   41.3340   10.6430 C.3    24  ARG24       0.0307
     38  CG        30.7990   40.1630   11.5480 C.3    24  ARG24       0.0489
     39  CD        30.7470   40.5730   12.9810 C.3    24  ARG24       0.2205
     40  NE        30.8100   39.4020   13.8380 N.pl3  24  ARG24      -0.0865
     41  CZ        30.7910   39.4550   15.1630 C.cat  24  ARG24       0.5346
     42  NH1       30.7050   40.6350   15.7750 N.pl3  24  ARG24       0.1354
     43  NH2       30.8750   38.3310   15.8680 N.pl3  24  ARG24       0.1354
     44  N         27.7530   43.3000    2.8430 N.3    27  LEU27      -0.1245
     45  CA        26.3340   43.5560    2.6610 C.3    27  LEU27       0.1561
     46  C         25.7120   42.7970    1.5000 C.2    27  LEU27       0.2260
     47  O         24.5050   42.8640    1.3030 O.2    27  LEU27      -0.2867
     48  CB        26.1000   45.0590    2.4740 C.3    27  LEU27       0.0270
     49  CG        26.7600   45.9120    3.5590 C.3    27  LEU27       0.0019
     50  CD1       26.4370   47.3810    3.3390 C.3    27  LEU27       0.0001
     51  CD2       26.2730   45.4600    4.9280 C.3    27  LEU27       0.0001
     52  N         24.1240   40.0040    9.0410 N.3    33  VAL33      -0.1231
     53  CA        23.5940   40.8490   10.1000 C.3    33  VAL33       0.1692
     54  C         23.4420   42.2790    9.5860 C.2    33  VAL33       0.2592
     55  O         22.5700   43.0230   10.0280 O.2    33  VAL33      -0.2718
     56  CB        24.5380   40.8510   11.3360 C.3    33  VAL33       0.0266
     57  CG1       25.9250   41.3620   10.9400 C.3    33  VAL33       0.0020
     58  CG2       23.9470   41.7060   12.4530 C.3    33  VAL33       0.0020
     59  N         24.2890   42.6530    8.6350 N.am   34  GLY34      -0.1957
     60  CA        24.2290   43.9870    8.0740 C.3    34  GLY34       0.1869
     61  C         22.9200   44.3260    7.4220 C.2    34  GLY34       0.2309
     62  O         22.2660   45.2990    7.7820 O.2    34  GLY34      -0.2863
     63  N         20.0820   44.4890   10.0200 N.3    37  LYS37      -0.1231
     64  CA        19.9910   45.7230   10.7850 C.3    37  LYS37       0.1693
     65  C         19.4360   46.8740    9.9470 C.2    37  LYS37       0.2591
     66  O         18.5460   47.5940   10.3980 O.2    37  LYS37      -0.2718
     67  CB        21.3490   46.1150   11.3610 C.3    37  LYS37       0.0285
     68  CG        21.8020   45.2170   12.4990 C.3    37  LYS37       0.0035
     69  CD        22.8670   45.8770   13.3680 C.3    37  LYS37       0.0206
     70  CE        24.1010   46.1610   12.5590 C.3    37  LYS37       0.1093
     71  NZ        25.2670   46.7060   13.2850 N.3    37  LYS37      -0.1314
     72  N         19.9520   47.0470    8.7330 N.am   38  LEU38      -0.1980
     73  CA        19.4650   48.1160    7.8660 C.3    38  LEU38       0.1596
     74  C         17.9780   47.9720    7.5140 C.2    38  LEU38       0.2287
     75  O         17.2890   48.9790    7.3390 O.2    38  LEU38      -0.2864
     76  CB        20.2920   48.1830    6.5850 C.3    38  LEU38       0.0297
     77  CG        21.7730   48.5300    6.7540 C.3    38  LEU38       0.0022
     78  CD1       22.4250   48.6070    5.3830 C.3    38  LEU38       0.0001
     79  CD2       21.9200   49.8490    7.4780 C.3    38  LEU38       0.0001
     80  N         25.9890   54.3020   10.0320 N.3    65  TYR65      -0.1241
     81  CA        24.9700   53.4680    9.3720 C.3    65  TYR65       0.1605
     82  C         23.6300   53.5150   10.0860 C.2    65  TYR65       0.2264
     83  O         22.5800   53.3760    9.4490 O.2    65  TYR65      -0.2867
     84  CB        25.4220   52.0010    9.3030 C.3    65  TYR65       0.0534
     85  CG        25.3060   51.2850   10.6380 C.ar   65  TYR65      -0.0201
     86  CD1       24.0940   50.7220   11.0530 C.ar   65  TYR65      -0.0009
     87  CD2       26.3770   51.2730   11.5320 C.ar   65  TYR65      -0.0009
     88  CE1       23.9570   50.1820   12.3330 C.ar   65  TYR65       0.0417
     89  CE2       26.2490   50.7340   12.8130 C.ar   65  TYR65       0.0417
     90  CZ        25.0410   50.1970   13.2070 C.ar   65  TYR65       0.1957
     91  OH        24.9170   49.7040   14.4820 O.3    65  TYR65      -0.2866
     92  N         27.2000   50.8400    2.8560 N.3   106  TYR106     -0.1241
     93  CA        25.9910   50.9080    3.6820 C.3   106  TYR106      0.1605
     94  C         25.0060   51.9190    3.1190 C.2   106  TYR106      0.2264
     95  O         23.7940   51.6710    3.1110 O.2   106  TYR106     -0.2867
     96  CB        26.3330   51.3000    5.1290 C.3   106  TYR106      0.0534
     97  CG        27.1450   50.2490    5.8450 C.ar  106  TYR106     -0.0201
     98  CD1       28.4810   50.0270    5.5100 C.ar  106  TYR106     -0.0009
     99  CD2       26.5620   49.4270    6.8070 C.ar  106  TYR106     -0.0009
    100  CE1       29.2130   49.0140    6.1050 C.ar  106  TYR106      0.0417
    101  CE2       27.2850   48.4150    7.4040 C.ar  106  TYR106      0.0417
    102  CZ        28.6130   48.2120    7.0480 C.ar  106  TYR106      0.1957
    103  OH        29.3560   47.2100    7.6260 O.3   106  TYR106     -0.2866
    104  N         24.1690   49.2440   20.1860 N.3   162  PHE162     -0.1241
    105  CA        25.2750   48.6070   20.8860 C.3   162  PHE162      0.1605
    106  C         25.9690   49.4650   21.9380 C.2   162  PHE162      0.2264
    107  O         27.1770   49.3480   22.1410 O.2   162  PHE162     -0.2867
    108  CB        26.3150   48.1320   19.8760 C.3   162  PHE162      0.0534
    109  CG        25.7650   47.2070   18.8410 C.ar  162  PHE162     -0.0203
    110  CD1       25.4530   47.6770   17.5670 C.ar  162  PHE162     -0.0042
    111  CD2       25.5620   45.8600   19.1350 C.ar  162  PHE162     -0.0042
    112  CE1       24.9480   46.8180   16.5930 C.ar  162  PHE162     -0.0003
    113  CE2       25.0560   44.9890   18.1700 C.ar  162  PHE162     -0.0003
    114  CZ        24.7470   45.4680   16.8930 C.ar  162  PHE162     -0.0000
    115  N         24.2900   48.0190   26.7000 N.3   165  GLU165     -0.1231
    116  CA        24.8270   46.7630   27.2040 C.3   165  GLU165      0.1699
    117  C         26.3510   46.7840   27.1970 C.2   165  GLU165      0.2592
    118  O         26.9900   46.1890   28.0560 O.2   165  GLU165     -0.2718
    119  CB        24.3000   45.5620   26.3950 C.3   165  GLU165      0.0402
    120  CG        24.7880   45.4480   24.9570 C.3   165  GLU165      0.1161
    121  CD        24.0330   46.3330   23.9750 C.2   165  GLU165      0.3649
    122  OE1       23.1340   47.1030   24.3920 O.co2 165  GLU165     -0.2457
    123  OE2       24.3460   46.2490   22.7700 O.co2 165  GLU165     -0.2457
    124  N         26.9320   47.4920   26.2380 N.am  166  ALA166     -0.1980
    125  CA        28.3870   47.5800   26.1250 C.3   166  ALA166      0.1597
    126  C         29.0610   48.4400   27.1840 C.2   166  ALA166      0.2287
    127  O         30.2850   48.4110   27.3210 O.2   166  ALA166     -0.2864
    128  CB        28.7540   48.1150   24.7610 C.3   166  ALA166      0.0319
    129  N         23.5750   43.9350   21.2680 N.3   196  ALA196     -0.1245
    130  CA        24.0420   42.5570   21.2860 C.3   196  ALA196      0.1562
    131  C         23.2720   41.7060   22.2940 C.2   196  ALA196      0.2260
    132  O         22.9640   42.1540   23.4000 O.2   196  ALA196     -0.2867
    133  CB        25.5220   42.5200   21.6120 C.3   196  ALA196      0.0290
    134  N         25.8600   38.7230   25.0530 N.3   199  GLU199     -0.1245
    135  CA        27.2920   38.9430   24.8300 C.3   199  GLU199      0.1567
    136  C         27.9560   39.3180   26.1570 C.2   199  GLU199      0.2260
    137  O         27.3520   40.0190   26.9680 O.2   199  GLU199     -0.2867
    138  CB        27.5150   40.0610   23.8060 C.3   199  GLU199      0.0388
    139  CG        28.9500   40.5840   23.7690 C.3   199  GLU199      0.1160
    140  CD        29.1720   41.6470   22.7000 C.2   199  GLU199      0.3649
    141  OE1       29.2890   41.2960   21.5100 O.co2 199  GLU199     -0.2457
    142  OE2       29.2230   42.8410   23.0510 O.co2 199  GLU199     -0.2457
    143  N         33.9060   41.9740   24.1230 N.3   202  TYR202     -0.1241
    144  CA        34.2040   42.2610   22.7230 C.3   202  TYR202      0.1605
    145  C         35.5190   43.0050   22.7080 C.2   202  TYR202      0.2264
    146  O         35.8690   43.6770   23.6810 O.2   202  TYR202     -0.2867
    147  CB        33.0890   43.0780   22.0530 C.3   202  TYR202      0.0534
    148  CG        33.0580   44.5550   22.3610 C.ar  202  TYR202     -0.0201
    149  CD1       33.6380   45.4760   21.4900 C.ar  202  TYR202     -0.0009
    150  CD2       32.3800   45.0430   23.4800 C.ar  202  TYR202     -0.0009
    151  CE1       33.5330   46.8460   21.7160 C.ar  202  TYR202      0.0417
    152  CE2       32.2690   46.4120   23.7180 C.ar  202  TYR202      0.0417
    153  CZ        32.8450   47.3050   22.8260 C.ar  202  TYR202      0.1957
    154  OH        32.7080   48.6570   23.0180 O.3   202  TYR202     -0.2866
    155  N         23.1170   35.1230   15.4020 N.3   238  MET238     -0.1245
    156  CA        24.4010   35.1920   14.7100 C.3   238  MET238      0.1570
    157  C         24.8080   33.8530   14.0910 C.2   238  MET238      0.2261
    158  O         25.0440   32.8740   14.7950 O.2   238  MET238     -0.2867
    159  CB        25.4850   35.6820   15.6750 C.3   238  MET238      0.0387
    160  CG        26.6670   36.3780   14.9870 C.3   238  MET238      0.0595
    161  SD        26.2040   37.9320   14.1380 S.3   238  MET238     -0.1393
    162  CE        26.7500   39.1660   15.3020 C.3   238  MET238      0.0692
    163  N         34.4920   38.7290   19.5350 N.3   247  ASP247     -0.1239
    164  CA        33.5420   38.7680   20.6400 C.3   247  ASP247      0.1674
    165  C         32.8580   37.4230   20.8180 C.2   247  ASP247      0.2266
    166  O         33.2490   36.4360   20.2020 O.2   247  ASP247     -0.2867
    167  CB        32.4700   39.8470   20.4160 C.3   247  ASP247      0.1410
    168  CG        31.6240   39.6040   19.1660 C.2   247  ASP247      0.3668
    169  OD1       31.2970   38.4420   18.8340 O.co2 247  ASP247     -0.2456
    170  OD2       31.2620   40.6000   18.5150 O.co2 247  ASP247     -0.2456
    171  N         29.2210   37.4070   20.9670 N.3   249  VAL249     -0.1245
    172  CA        27.8260   37.7810   20.7700 C.3   249  VAL249      0.1561
    173  C         27.0480   36.5870   20.2150 C.2   249  VAL249      0.2260
    174  O         27.5460   35.8710   19.3490 O.2   249  VAL249     -0.2867
    175  CB        27.7170   38.9960   19.8020 C.3   249  VAL249      0.0252
    176  CG1       28.2030   38.6070   18.4110 C.3   249  VAL249      0.0019
    177  CG2       26.2860   39.4980   19.7420 C.3   249  VAL249      0.0019
    178  N         21.5620   39.5570   17.8100 N.3   252  VAL252     -0.1245
    179  CA        21.3850   41.0030   17.8430 C.3   252  VAL252      0.1561
    180  C         19.8930   41.2820   17.9530 C.2   252  VAL252      0.2260
    181  O         19.0790   40.5770   17.3510 O.2   252  VAL252     -0.2867
    182  CB        21.9260   41.6650   16.5410 C.3   252  VAL252      0.0252
    183  CG1       21.5100   43.1230   16.4790 C.3   252  VAL252      0.0019
    184  CG2       23.4440   41.5520   16.4890 C.3   252  VAL252      0.0019
@<TRIPOS>BOND
     1    47    46    2
     2    46    45    1
     3    48    45    1
     4    48    49    1
     5    45    44    1
     6    92    93    1
     7    95    94    2
     8    94    93    1
     9    50    49    1
    10    49    51    1
    11    93    96    1
    12    96    97    1
    13    78    77    1
    14    98    97   ar
    15    98   100   ar
    16    97    99   ar
    17   100   102   ar
    18    76    77    1
    19    76    73    1
    20    77    79    1
    21    99   101   ar
    22   102   101   ar
    23   102   103    1
    24    75    74    2
    25    61    62    2
    26    61    60    1
    27    24    23    2
    28    74    73    1
    29    73    72    1
    30    60    59    1
    31    36    35    2
    32    35    34    1
    33    23    22    1
    34    59    54   am
    35    33    34    1
    36    72    65   am
    37    52    53    1
    38    34    37    1
    39    84    81    1
    40    84    85    1
    41    81    80    1
    42    81    82    1
    43    83    82    2
    44    54    55    2
    45    54    53    1
    46    22    25    1
    47    22    21    1
    48    65    66    2
    49    65    64    1
    50    63    64    1
    51    25    26    1
    52    53    56    1
    53    85    86   ar
    54    85    87   ar
    55    37    38    1
    56    64    67    1
    57    57    56    1
    58    28    26   ar
    59    28    30   ar
    60    86    88   ar
    61    21    15   am
    62    26    27   ar
    63    16    15    2
    64    56    58    1
    65    67    68    1
    66    87    89   ar
    67    38    39    1
    68    15    14    1
    69    30    31   ar
    70    88    90   ar
    71    68    69    1
    72    27    29   ar
    73    70    71    1
    74    70    69    1
    75    89    90   ar
    76    39    40    1
    77    14    13    1
    78    14    17    1
    79    90    91    1
    80    31    29   ar
    81    31    32    1
    82    40    41    2
    83   157   156    1
    84   157   158    2
    85   161   160    1
    86   161   162    1
    87    17    18    1
    88     4     3    2
    89   156   155    1
    90   156   159    1
    91     3     2    1
    92   160   159    1
    93    41    42    1
    94    41    43    1
    95    18    19    2
    96    18    20   am
    97     1     2    1
    98     2     5    1
    99   183   182    1
   100   184   182    1
   101     8    10   ar
   102     8     6   ar
   103   182   179    1
   104   112   114   ar
   105   112   110   ar
   106    10    11   ar
   107   114   113   ar
   108     5     6    1
   109     6     7   ar
   110   181   180    2
   111   110   109   ar
   112    11    12    1
   113    11     9   ar
   114   178   179    1
   115   179   180    1
   116   113   111   ar
   117     7     9   ar
   118   176   175    1
   119   170   168   ar
   120   169   168   ar
   121   109   111   ar
   122   109   108    1
   123   168   167    1
   124   174   173    2
   125   163   164    1
   126   177   175    1
   127   175   172    1
   128   108   105    1
   129   104   105    1
   130   166   165    2
   131   173   172    1
   132   167   164    1
   133   164   165    1
   134   172   171    1
   135   105   106    1
   136   129   130    1
   137   130   133    1
   138   130   131    1
   139   149   151   ar
   140   149   148   ar
   141   141   140   ar
   142   151   153   ar
   143   106   107    2
   144   147   148    1
   145   147   144    1
   146   131   132    2
   147   148   150   ar
   148   140   142   ar
   149   140   139    1
   150   145   144    1
   151   145   146    2
   152   144   143    1
   153   123   121   ar
   154   153   154    1
   155   153   152   ar
   156   150   152   ar
   157   139   138    1
   158   138   135    1
   159   121   122   ar
   160   121   120    1
   161   128   125    1
   162   135   134    1
   163   135   136    1
   164   120   119    1
   165   125   124    1
   166   125   126    1
   167   136   137    2
   168   124   117   am
   169   119   116    1
   170   115   116    1
   171   126   127    2
   172   117   116    1
   173   117   118    2
