@<TRIPOS>MOLECULE
tmp/2g73A00.pdb
 157 147 0 0 0
SMALL
GASTEIGER

@<TRIPOS>ATOM
      1  N          4.7020   -3.3760    3.8600 N.3     1  GLU1       -0.1245
      2  CA         4.5280   -2.4490    4.9720 C.3     1  GLU1        0.1567
      3  C          4.2480   -1.0440    4.4530 C.2     1  GLU1        0.2260
      4  O          4.7430   -0.6600    3.3910 O.2     1  GLU1       -0.2867
      5  CB         5.7560   -2.4450    5.8870 C.3     1  GLU1        0.0388
      6  CG         5.5570   -1.5980    7.1360 C.3     1  GLU1        0.1160
      7  CD         6.7410   -1.6660    8.0850 C.2     1  GLU1        0.3649
      8  OE1        6.6030   -1.2040    9.2400 O.co2   1  GLU1       -0.2457
      9  OE2        7.7950   -2.1760    7.6550 O.co2   1  GLU1       -0.2457
     10  N          6.1680    2.1130    2.8210 N.3    18  LYS18      -0.1245
     11  CA         6.8810    2.8470    3.8690 C.3    18  LYS18       0.1561
     12  C          8.1390    3.5230    3.3390 C.2    18  LYS18       0.2260
     13  O          8.3920    4.6940    3.6350 O.2    18  LYS18      -0.2867
     14  CB         7.2370    1.9340    5.0540 C.3    18  LYS18       0.0271
     15  CG         7.7590    2.7020    6.2640 C.3    18  LYS18       0.0035
     16  CD         8.0060    1.8250    7.4750 C.3    18  LYS18       0.0206
     17  CE         9.2700    0.9890    7.3410 C.3    18  LYS18       0.1093
     18  NZ         9.5370    0.2150    8.5890 N.3    18  LYS18      -0.1314
     19  N          2.0270    7.7500   13.0760 N.3    31  ALA31      -0.1231
     20  CA         3.1780    7.1350   13.7110 C.3    31  ALA31       0.1694
     21  C          3.0420    6.9730   15.2200 C.2    31  ALA31       0.2592
     22  O          2.0440    7.3510   15.8260 O.2    31  ALA31      -0.2718
     23  CB         4.4110    7.9920   13.4450 C.3    31  ALA31       0.0304
     24  N          4.0810    6.4070   15.8520 N.am   32  PHE32      -0.1976
     25  CA         4.1200    6.3800   17.3010 C.3    32  PHE32       0.1639
     26  C          5.5630    6.6050   17.7720 C.2    32  PHE32       0.2290
     27  O          6.4710    6.3350   17.0020 O.2    32  PHE32      -0.2864
     28  CB         3.6140    5.0830   17.9330 C.3    32  PHE32       0.0560
     29  CG         4.4490    3.8480   17.6910 C.ar   32  PHE32      -0.0200
     30  CD1        5.4450    3.4250   18.5600 C.ar   32  PHE32      -0.0042
     31  CD2        4.2050    3.1030   16.5470 C.ar   32  PHE32      -0.0042
     32  CE1        6.1990    2.3010   18.3050 C.ar   32  PHE32      -0.0003
     33  CE2        4.9540    1.9670   16.2910 C.ar   32  PHE32      -0.0003
     34  CZ         5.9390    1.5600   17.1660 C.ar   32  PHE32      -0.0000
     35  N         19.8870    5.0080   15.8190 N.3    48  ARG48      -0.1245
     36  CA        19.2840    4.4230   14.6210 C.3    48  ARG48       0.1563
     37  C         20.3440    3.8770   13.6720 C.2    48  ARG48       0.2260
     38  O         21.4060    4.4820   13.5010 O.2    48  ARG48      -0.2867
     39  CB        18.4090    5.4720   13.9290 C.3    48  ARG48       0.0307
     40  CG        17.1560    5.9240   14.6630 C.3    48  ARG48       0.0489
     41  CD        16.6530    7.2520   14.1240 C.3    48  ARG48       0.2205
     42  NE        16.0300    7.1150   12.8090 N.pl3  48  ARG48      -0.0865
     43  CZ        14.8350    6.5570   12.6320 C.cat  48  ARG48       0.5346
     44  NH1       14.1550    6.0950   13.6740 N.pl3  48  ARG48       0.1354
     45  NH2       14.2930    6.4460   11.4250 N.pl3  48  ARG48       0.1354
     46  N         18.8510    3.5040    8.1290 N.3    52  LYS52      -0.1245
     47  CA        17.4870    4.0450    8.1780 C.3    52  LYS52       0.1561
     48  C         17.3390    5.1890    7.1880 C.2    52  LYS52       0.2260
     49  O         18.2660    5.9640    6.9610 O.2    52  LYS52      -0.2867
     50  CB        17.1120    4.5310    9.5760 C.3    52  LYS52       0.0271
     51  CG        17.1480    3.4300   10.6270 C.3    52  LYS52       0.0035
     52  CD        16.1320    2.3400   10.3400 C.3    52  LYS52       0.0206
     53  CE        14.7230    2.8890   10.1620 C.3    52  LYS52       0.1093
     54  NZ        13.7680    1.7520    9.9600 N.3    52  LYS52      -0.1314
     55  N         15.3370    7.9020    7.3460 N.3    54  ALA54      -0.1245
     56  CA        15.2410    9.1780    8.0500 C.3    54  ALA54       0.1562
     57  C         16.0970    9.1680    9.3140 C.2    54  ALA54       0.2260
     58  O         16.0820    8.1730   10.0330 O.2    54  ALA54      -0.2867
     59  CB        13.7960    9.5000    8.4030 C.3    54  ALA54       0.0290
     60  N         10.3350    3.7610   17.7770 N.3    64  CYS64      -0.1221
     61  CA         9.4030    4.5740   17.0040 C.3    64  CYS64       0.1808
     62  C          8.9410    3.7820   15.7840 C.2    64  CYS64       0.2602
     63  O          9.6800    2.9300   15.2900 O.2    64  CYS64      -0.2717
     64  CB        10.0120    5.9030   16.5580 C.3    64  CYS64       0.0970
     65  SG        10.7020    6.9170   17.8970 S.3    64  CYS64      -0.0800
     66  N          7.7270    4.0610   15.3150 N.am   65  GLY65      -0.1942
     67  CA         7.1690    3.2830   14.2300 C.3    65  GLY65       0.2014
     68  C          5.8980    3.8880   13.6510 C.2    65  GLY65       0.2638
     69  O          5.4910    4.9960   13.9980 O.2    65  GLY65      -0.2714
     70  N          5.3220    3.1070   12.7540 N.am   66  HIS66      -0.1973
     71  CA         4.2110    3.4500   11.8890 C.3    66  HIS66       0.1656
     72  C          3.0950    2.4110   11.9990 C.2    66  HIS66       0.2291
     73  O          3.2130    1.3010   11.4530 O.2    66  HIS66      -0.2864
     74  CB         4.7270    3.5370   10.4580 C.3    66  HIS66       0.0771
     75  CG         5.6390    4.6730   10.1420 C.ar   66  HIS66       0.0820
     76  ND1        7.0110    4.5090   10.0450 N.ar   66  HIS66      -0.2267
     77  CD2        5.3990    5.9820    9.8880 C.ar   66  HIS66       0.1154
     78  CE1        7.5590    5.6770    9.7520 C.ar   66  HIS66       0.1986
     79  NE2        6.6050    6.5970    9.6470 N.ar   66  HIS66      -0.2212
     80  N          6.8260   -3.2240   17.0190 N.3    80  ARG80      -0.1245
     81  CA         8.1570   -2.7010   16.6890 C.3    80  ARG80       0.1563
     82  C          9.1480   -2.9940   17.8090 C.2    80  ARG80       0.2260
     83  O         10.3620   -3.0490   17.5790 O.2    80  ARG80      -0.2867
     84  CB         8.0650   -1.2100   16.3810 C.3    80  ARG80       0.0307
     85  CG         7.3480   -0.8880   15.0800 C.3    80  ARG80       0.0489
     86  CD         7.9030   -1.7120   13.9300 C.3    80  ARG80       0.2205
     87  NE         9.1680   -1.1840   13.4140 N.pl3  80  ARG80      -0.0865
     88  CZ         9.7650   -1.6740   12.3340 C.cat  80  ARG80       0.5346
     89  NH1        9.2150   -2.6860   11.6750 N.pl3  80  ARG80       0.1354
     90  NH2       10.9110   -1.1810   11.8810 N.pl3  80  ARG80       0.1354
     91  N         12.4260   -4.5040   16.3690 N.3    84  GLU84      -0.1245
     92  CA        13.6440   -3.7000   16.3660 C.3    84  GLU84       0.1567
     93  C         14.5830   -4.1580   17.4860 C.2    84  GLU84       0.2260
     94  O         15.8060   -4.1180   17.3190 O.2    84  GLU84      -0.2867
     95  CB        13.3230   -2.2120   16.5040 C.3    84  GLU84       0.0388
     96  CG        12.3130   -1.6340   15.5270 C.3    84  GLU84       0.1160
     97  CD        12.2300   -0.1220   15.5750 C.2    84  GLU84       0.3649
     98  OE1       12.8710    0.4400   16.4930 O.co2  84  GLU84      -0.2457
     99  OE2       11.5620    0.5380   14.7360 O.co2  84  GLU84      -0.2457
    100  N          4.3680   16.3880   14.7560 N.3   101  PHE101     -0.1241
    101  CA         5.5010   17.2210   14.3600 C.3   101  PHE101      0.1605
    102  C          5.8660   17.0050   12.8950 C.2   101  PHE101      0.2264
    103  O          5.4840   16.0530   12.2300 O.2   101  PHE101     -0.2867
    104  CB         6.7560   16.9540   15.2080 C.3   101  PHE101      0.0534
    105  CG         7.4650   15.6850   14.7480 C.ar  101  PHE101     -0.0203
    106  CD1        8.6580   15.7170   14.0510 C.ar  101  PHE101     -0.0042
    107  CD2        6.8800   14.4610   15.0430 C.ar  101  PHE101     -0.0042
    108  CE1        9.2530   14.5360   13.6370 C.ar  101  PHE101     -0.0003
    109  CE2        7.4650   13.2790   14.6340 C.ar  101  PHE101     -0.0003
    110  CZ         8.6560   13.3230   13.9260 C.ar  101  PHE101     -0.0000
    111  N         10.3000   14.0030    8.2340 N.3   111  GLU111     -0.1245
    112  CA         9.2040   13.2470    8.8460 C.3   111  GLU111      0.1567
    113  C          8.0850   14.2580    9.1470 C.2   111  GLU111      0.2260
    114  O          8.3590   15.3980    9.5220 O.2   111  GLU111     -0.2867
    115  CB         9.5750   12.4830   10.1050 C.3   111  GLU111      0.0388
    116  CG         9.9830   11.0370    9.9170 C.3   111  GLU111      0.1160
    117  CD         8.8300   10.0790    9.6750 C.2   111  GLU111      0.3649
    118  OE1        9.0760    8.8450    9.7670 O.co2 111  GLU111     -0.2457
    119  OE2        7.8030   10.5010    9.0910 O.co2 111  GLU111     -0.2457
    120  N          4.3340   13.8780   10.9630 N.3   113  GLU113     -0.1196
    121  CA         3.6430   12.8060   11.6470 C.3   113  GLU113      0.1783
    122  C          2.6960   13.3290   12.7220 C.2   113  GLU113      0.2306
    123  O          2.9990   14.2610   13.4530 O.2   113  GLU113     -0.2863
    124  CB         4.6110   11.8100   12.3140 C.2   113  GLU113      0.0071
    125  CG         5.5900   11.0880   11.4400 C.2   113  GLU113      0.0834
    126  CD         6.5220   10.0270   11.9440 C.2   113  GLU113      0.3877
    127  OE1        7.1550    9.9780   13.0270 O.co2 113  GLU113     -0.2406
    128  OE2        6.6890    9.0580   11.1370 O.co2 113  GLU113     -0.2406
    129  N          1.8060   11.7770   16.0210 N.3   115  CYS115     -0.1235
    130  CA         2.6700   10.7450   16.6160 C.3   115  CYS115      0.1677
    131  C          2.4380   10.5940   18.1060 C.2   115  CYS115      0.2270
    132  O          3.2710   11.0510   18.8940 O.2   115  CYS115     -0.2867
    133  CB         4.1240   11.1190   16.2920 C.3   115  CYS115      0.0956
    134  SG         5.4240   10.0820   16.9920 S.3   115  CYS115     -0.0801
    135  N         18.0580   -2.0980   12.2570 N.3   132  GLU132     -0.1245
    136  CA        17.3130   -0.9730   12.8170 C.3   132  GLU132      0.1567
    137  C         18.0940   -0.1880   13.8650 C.2   132  GLU132      0.2260
    138  O         18.0530    1.0480   13.8880 O.2   132  GLU132     -0.2867
    139  CB        15.9930   -1.4750   13.4290 C.3   132  GLU132      0.0388
    140  CG        15.1280   -2.2720   12.4640 C.3   132  GLU132      0.1160
    141  CD        14.3820   -1.3850   11.4840 C.2   132  GLU132      0.3649
    142  OE1       14.1520   -0.1950   11.7920 O.co2 132  GLU132     -0.2457
    143  OE2       14.0010   -1.8510   10.3870 O.co2 132  GLU132     -0.2457
    144  N         12.3980   14.9970   17.5220 N.3   158  TRP158     -0.1241
    145  CA        11.1310   14.6510   18.1760 C.3   158  TRP158      0.1605
    146  C         11.3650   14.1260   19.5830 C.2   158  TRP158      0.2264
    147  O         10.5470   14.2300   20.4880 O.2   158  TRP158     -0.2867
    148  CB        10.3480   13.6110   17.3580 C.3   158  TRP158      0.0550
    149  CG        11.0890   12.3200   17.1760 C.ar  158  TRP158      0.0003
    150  CD1       11.1260   11.2410   18.0050 C.ar  158  TRP158      0.0946
    151  CD2       11.9170   11.9980   16.0490 C.ar  158  TRP158      0.0152
    152  NE1       11.9300   10.2610   17.4650 N.ar  158  TRP158     -0.2442
    153  CE2       12.4230   10.7050   16.2640 C.ar  158  TRP158      0.0810
    154  CE3       12.2640   12.6920   14.8830 C.ar  158  TRP158      0.0012
    155  CZ2       13.2750   10.0750   15.3500 C.ar  158  TRP158      0.0191
    156  CZ3       13.1070   12.0640   13.9840 C.ar  158  TRP158      0.0001
    157  CH2       13.6010   10.7740   14.2180 C.ar  158  TRP158      0.0015
@<TRIPOS>BOND
     1    10    11    1
     2    12    13    2
     3    12    11    1
     4     4     3    2
     5     1     2    1
     6    11    14    1
     7     3     2    1
     8     2     5    1
     9    14    15    1
    10     5     6    1
    11    15    16    1
    12    49    48    2
    13     6     7    1
    14    48    47    1
    15    17    16    1
    16    17    18    1
    17    55    56    1
    18     9     7   ar
    19    56    59    1
    20    56    57    1
    21     7     8   ar
    22    46    47    1
    23    47    50    1
    24   111   112    1
    25   112   113    1
    26   112   115    1
    27   119   117   ar
    28   113   114    2
    29    57    58    2
    30    50    51    1
    31    79    78   ar
    32    79    77   ar
    33   117   118   ar
    34   117   116    1
    35    78    76   ar
    36    77    75   ar
    37   116   115    1
    38    54    53    1
    39    76    75   ar
    40    75    74    1
    41    53    52    1
    42    52    51    1
    43   143   141   ar
    44    74    71    1
    45   120   121    1
    46   128   126   ar
    47    45    43    1
    48   125   126    1
    49   125   124    2
    50    73    72    2
    51   141   142   ar
    52   141   140    1
    53   121   124    1
    54   121   122    1
    55    89    88    1
    56    90    88    1
    57    71    72    1
    58    71    70    1
    59   126   127   ar
    60   103   102    2
    61   135   136    1
    62    88    87    2
    63   140   139    1
    64    43    42    2
    65    43    44    1
    66   122   123    2
    67    70    68   am
    68    42    41    1
    69   136   139    1
    70   136   137    1
    71   102   101    1
    72    19    20    1
    73    87    86    1
    74    23    20    1
    75    38    37    2
    76   108   110   ar
    77   108   106   ar
    78    68    69    2
    79    68    67    1
    80    37    36    1
    81    20    21    1
    82   137   138    2
    83   110   109   ar
    84    39    36    1
    85    39    40    1
    86    86    85    1
    87   156   157   ar
    88   156   154   ar
    89   106   105   ar
    90    41    40    1
    91   157   155   ar
    92    67    66    1
    93   101   100    1
    94   101   104    1
    95    36    35    1
    96   109   107   ar
    97    99    97   ar
    98   105   107   ar
    99   105   104    1
   100   154   151   ar
   101    85    84    1
   102    21    22    2
   103    21    24   am
   104    63    62    2
   105    66    62   am
   106   155   153   ar
   107    96    97    1
   108    96    95    1
   109    97    98   ar
   110    62    61    1
   111    24    25    1
   112   129   130    1
   113   151   153   ar
   114   151   149   ar
   115   153   152   ar
   116    33    31   ar
   117    33    34   ar
   118   133   130    1
   119   133   134    1
   120    92    91    1
   121    92    95    1
   122    92    93    1
   123    84    81    1
   124    31    29   ar
   125    64    61    1
   126    64    65    1
   127   130   131    1
   128    81    80    1
   129    81    82    1
   130    27    26    2
   131    61    60    1
   132    34    32   ar
   133   149   148    1
   134   149   150   ar
   135    25    26    1
   136    25    28    1
   137    94    93    2
   138   148   145    1
   139   152   150   ar
   140   144   145    1
   141    83    82    2
   142    29    28    1
   143    29    30   ar
   144   131   132    2
   145   145   146    1
   146    32    30   ar
   147   146   147    2
