@<TRIPOS>MOLECULE
tmp/2g76A00.pdb
 91 85 0 0 0
SMALL
GASTEIGER

@<TRIPOS>ATOM
      1  N         -6.1310   39.1450    3.8270 N.3    49  ARG49      -0.1231
      2  CA        -5.3120   37.9870    4.1790 C.3    49  ARG49       0.1694
      3  C         -5.4120   37.0250    2.9920 C.2    49  ARG49       0.2592
      4  O         -4.7960   37.2900    1.9650 O.2    49  ARG49      -0.2718
      5  CB        -5.7630   37.3760    5.5040 C.3    49  ARG49       0.0321
      6  CG        -4.8540   36.2520    5.9800 C.3    49  ARG49       0.0489
      7  CD        -5.3000   35.7020    7.3050 C.3    49  ARG49       0.2205
      8  NE        -4.4870   34.5490    7.6730 N.pl3  49  ARG49      -0.0865
      9  CZ        -4.7850   33.7040    8.6510 C.cat  49  ARG49       0.5346
     10  NH1       -5.8730   33.8690    9.4010 N.pl3  49  ARG49       0.1354
     11  NH2       -3.9830   32.6800    8.8890 N.pl3  49  ARG49       0.1354
     12  N         -6.2140   35.9660    3.0840 N.am   50  SER50      -0.1952
     13  CA        -6.3650   35.0030    1.9790 C.3    50  SER50       0.1924
     14  C         -7.7940   34.8780    1.4140 C.2    50  SER50       0.2314
     15  O         -7.9640   34.5760    0.2260 O.2    50  SER50      -0.2863
     16  CB        -5.8470   33.6270    2.4160 C.3    50  SER50       0.2116
     17  OG        -4.4190   33.6160    2.4210 O.3    50  SER50      -0.2180
     18  N         -1.4080   42.4220    1.2210 N.3    70  ARG70      -0.1231
     19  CA        -1.7530   41.0660    1.6420 C.3    70  ARG70       0.1694
     20  C         -0.9650   40.7470    2.9120 C.2    70  ARG70       0.2592
     21  O          0.2580   40.8850    2.9230 O.2    70  ARG70      -0.2718
     22  CB        -1.3940   40.0630    0.5260 C.3    70  ARG70       0.0321
     23  CG        -1.5680   38.5780    0.8820 C.3    70  ARG70       0.0489
     24  CD        -1.2950   37.6870   -0.3110 C.3    70  ARG70       0.2205
     25  NE        -0.7640   36.3900    0.1250 N.pl3  70  ARG70      -0.0865
     26  CZ        -1.4810   35.4010    0.6480 C.cat  70  ARG70       0.5346
     27  NH1       -2.7910   35.5090    0.8350 N.pl3  70  ARG70       0.1354
     28  NH2       -0.8780   34.2860    1.0090 N.pl3  70  ARG70       0.1354
     29  N         -1.6580   40.2940    3.9640 N.am   71  ALA71      -0.1966
     30  CA        -1.0170   39.9560    5.2400 C.3    71  ALA71       0.1728
     31  C         -0.6320   38.4940    5.2260 C.2    71  ALA71       0.2617
     32  O         -1.1760   37.6840    5.9600 O.2    71  ALA71      -0.2715
     33  CB        -1.9490   40.2630    6.4050 C.3    71  ALA71       0.0334
     34  N          0.3230   38.1870    4.3610 N.am   72  GLY72      -0.1940
     35  CA         0.8390   36.8430    4.1570 C.3    72  GLY72       0.2014
     36  C          1.8700   36.8800    3.0460 C.2    72  GLY72       0.2639
     37  O          2.1570   37.9310    2.4710 O.2    72  GLY72      -0.2714
     38  N          2.4300   35.7300    2.7110 N.am   73  THR73      -0.1950
     39  CA         3.4540   35.6840    1.6830 C.3    73  THR73       0.1897
     40  C          2.8380   35.4780    0.2950 C.2    73  THR73       0.2313
     41  O          1.7050   35.0220    0.1590 O.2    73  THR73      -0.2863
     42  CB         4.4600   34.5860    1.9580 C.3    73  THR73       0.1794
     43  OG1        3.8040   33.3210    1.8790 O.3    73  THR73      -0.2208
     44  CG2        5.0880   34.7600    3.3590 C.3    73  THR73       0.0378
     45  N          5.7090   35.5410    8.8820 N.3    97  ASN97      -0.1240
     46  CA         5.2610   34.1310    8.9460 C.3    97  ASN97       0.1653
     47  C          6.3400   33.0970    9.0060 C.2    97  ASN97       0.2266
     48  O          6.0330   31.9120    9.1800 O.2    97  ASN97      -0.2867
     49  CB         4.4520   33.7770    7.6700 C.3    97  ASN97       0.1155
     50  CG         3.1000   34.3490    7.6970 C.2    97  ASN97       0.2627
     51  OD1        2.5860   34.6780    8.7700 O.2    97  ASN97      -0.2716
     52  ND2        2.4920   34.4930    6.5360 N.am   97  ASN97      -0.0877
     53  N          3.8000   25.8140   -1.0810 N.3   231  ARG231     -0.1245
     54  CA         2.6780   26.0930   -1.9600 C.3   231  ARG231      0.1563
     55  C          2.2530   24.8140   -2.6810 C.2   231  ARG231      0.2260
     56  O          3.0890   24.0310   -3.1210 O.2   231  ARG231     -0.2867
     57  CB         3.0480   27.1350   -3.0040 C.3   231  ARG231      0.0307
     58  CG         3.0590   28.5750   -2.4650 C.3   231  ARG231      0.0489
     59  CD         1.6460   28.9840   -2.1050 C.3   231  ARG231      0.2205
     60  NE         1.5580   30.3810   -1.6480 N.pl3 231  ARG231     -0.0865
     61  CZ         1.6650   30.7690   -0.3750 C.cat 231  ARG231      0.5346
     62  NH1        1.8570   29.8970    0.5770 N.pl3 231  ARG231      0.1354
     63  NH2        1.5480   32.0500   -0.0570 N.pl3 231  ARG231      0.1354
     64  N         -3.8670   24.6130    5.5730 N.3   278  HIS278     -0.1241
     65  CA        -2.9900   25.7750    5.3020 C.3   278  HIS278      0.1621
     66  C         -2.8340   26.6080    6.5760 C.2   278  HIS278      0.2264
     67  O         -3.2220   27.7750    6.6330 O.2   278  HIS278     -0.2867
     68  CB        -3.5090   26.5990    4.1200 C.3   278  HIS278      0.0745
     69  CG        -2.5140   27.5730    3.5630 C.ar  278  HIS278      0.0817
     70  ND1       -2.4960   27.9300    2.2300 N.ar  278  HIS278     -0.2268
     71  CD2       -1.4900   28.2410    4.1390 C.ar  278  HIS278      0.1154
     72  CE1       -1.5300   28.8100    2.0210 C.ar  278  HIS278      0.1986
     73  NE2       -0.9100   29.0260    3.1670 N.ar  278  HIS278     -0.2212
     74  N          0.2110   26.9900    8.1430 N.3   280  GLY280     -0.1210
     75  CA         1.6220   27.3750    8.3310 C.3   280  GLY280      0.1956
     76  C          1.8120   28.7460    8.9990 C.2   280  GLY280      0.2611
     77  O          2.8050   28.9570    9.7360 O.2   280  GLY280     -0.2717
     78  N          0.8900   29.6800    8.7590 N.am  281  ALA281     -0.1979
     79  CA         0.9620   31.0190    9.3320 C.3   281  ALA281      0.1597
     80  C         -0.0630   31.2500   10.4610 C.2   281  ALA281      0.2287
     81  O         -0.2260   32.3610   10.9720 O.2   281  ALA281     -0.2864
     82  CB         0.7870   32.0840    8.2440 C.3   281  ALA281      0.0319
     83  N          0.3420   36.0480   13.0110 N.3   287  GLN287     -0.1245
     84  CA        -0.7110   36.9660   12.5660 C.3   287  GLN287      0.1566
     85  C         -0.5000   38.3840   13.1120 C.2   287  GLN287      0.2260
     86  O         -0.6880   39.3660   12.3860 O.2   287  GLN287     -0.2867
     87  CB        -2.0870   36.4030   12.9130 C.3   287  GLN287      0.0367
     88  CG        -2.4090   35.1520   12.1010 C.3   287  GLN287      0.0905
     89  CD        -2.3280   35.4310   10.6140 C.2   287  GLN287      0.2608
     90  OE1       -3.0450   36.3040   10.1080 O.2   287  GLN287     -0.2717
     91  NE2       -1.4030   34.7560    9.9100 N.am  287  GLN287     -0.0878
@<TRIPOS>BOND
     1    56    55    2
     2    57    58    1
     3    57    54    1
     4    55    54    1
     5    58    59    1
     6    59    60    1
     7    54    53    1
     8    60    61    2
     9    61    63    1
    10    61    62    1
    11    24    25    1
    12    24    23    1
    13    25    26    2
    14    41    40    2
    15    15    14    2
    16    40    39    1
    17    22    23    1
    18    22    19    1
    19    26    27    1
    20    26    28    1
    21    18    19    1
    22    14    13    1
    23    19    20    1
    24    39    42    1
    25    39    38    1
    26    43    42    1
    27    42    44    1
    28     4     3    2
    29    13    16    1
    30    13    12    1
    31    72    70   ar
    32    72    73   ar
    33    70    69   ar
    34    16    17    1
    35    37    36    2
    36    38    36   am
    37    20    21    2
    38    20    29   am
    39     3    12   am
    40     3     2    1
    41    36    35    1
    42    73    71   ar
    43    69    68    1
    44    69    71   ar
    45     1     2    1
    46    29    30    1
    47    68    65    1
    48    35    34    1
    49     2     5    1
    50    34    31   am
    51    31    30    1
    52    31    32    2
    53    30    33    1
    54    65    64    1
    55    65    66    1
    56     5     6    1
    57     6     7    1
    58    52    50   am
    59    66    67    2
    60     7     8    1
    61    49    50    1
    62    49    46    1
    63     8     9    2
    64    50    51    2
    65    74    75    1
    66    82    79    1
    67    75    76    1
    68     9    11    1
    69     9    10    1
    70    78    76   am
    71    78    79    1
    72    45    46    1
    73    46    47    1
    74    76    77    2
    75    47    48    2
    76    79    80    1
    77    91    89   am
    78    90    89    2
    79    80    81    2
    80    89    88    1
    81    88    87    1
    82    86    85    2
    83    84    87    1
    84    84    83    1
    85    84    85    1
