@<TRIPOS>MOLECULE
tmp/2g77B00.pdb
 173 167 0 0 0
SMALL
GASTEIGER

@<TRIPOS>ATOM
      1  N         26.9190   31.6680   23.1320 N.3    13  SER13      -0.1202
      2  CA        26.0200   32.4810   23.9580 C.3    13  SER13       0.2020
      3  C         25.8250   33.9250   23.3430 C.2    13  SER13       0.2619
      4  O         26.7950   34.5330   22.9190 O.2    13  SER13      -0.2717
      5  CB        26.6680   32.6110   25.3570 C.3    13  SER13       0.2103
      6  OG        25.9030   33.4780   26.1760 O.3    13  SER13      -0.2182
      7  N         24.6000   34.4450   23.2930 N.am   14  ASN14      -0.1960
      8  CA        24.3490   35.8560   23.0010 C.3    14  ASN14       0.1819
      9  C         24.3590   36.2490   21.5300 C.2    14  ASN14       0.2621
     10  O         24.2360   37.4440   21.2160 O.2    14  ASN14      -0.2715
     11  CB        25.2880   36.8000   23.8060 C.3    14  ASN14       0.1195
     12  CG        24.6650   38.1890   24.0470 C.2    14  ASN14       0.2630
     13  OD1       23.5870   38.3170   24.6170 O.2    14  ASN14      -0.2716
     14  ND2       25.3590   39.2240   23.6170 N.am   14  ASN14      -0.0877
     15  N         24.4380   35.2760   20.6370 N.am   15  VAL15      -0.1963
     16  CA        24.5340   35.5720   19.2040 C.3    15  VAL15       0.1727
     17  C         23.0970   35.7770   18.6590 C.2    15  VAL15       0.2617
     18  O         22.9110   36.3730   17.5970 O.2    15  VAL15      -0.2715
     19  CB        25.2550   34.4480   18.4070 C.3    15  VAL15       0.0290
     20  CG1       26.7150   34.2120   18.9100 C.3    15  VAL15       0.0023
     21  CG2       24.3890   33.1660   18.3380 C.3    15  VAL15       0.0023
     22  N         22.0920   35.2900   19.3970 N.am   16  GLY16      -0.1940
     23  CA        20.7110   35.5540   19.0800 C.3    16  GLY16       0.2014
     24  C         19.9700   34.3210   18.6690 C.2    16  GLY16       0.2639
     25  O         18.9960   34.4260   17.9520 O.2    16  GLY16      -0.2714
     26  N         20.3740   33.1450   19.1410 N.am   17  LYS17      -0.1963
     27  CA        19.6500   31.9290   18.7480 C.3    17  LYS17       0.1728
     28  C         18.1760   32.0190   19.1720 C.2    17  LYS17       0.2617
     29  O         17.2740   31.6720   18.3680 O.2    17  LYS17      -0.2715
     30  CB        20.3210   30.6390   19.2710 C.3    17  LYS17       0.0311
     31  CG        21.8250   30.5630   19.0110 C.3    17  LYS17       0.0038
     32  CD        22.4250   29.3010   19.6480 C.3    17  LYS17       0.0206
     33  CE        22.5760   29.4340   21.2210 C.3    17  LYS17       0.1093
     34  NZ        23.3420   30.6770   21.5150 N.3    17  LYS17      -0.1314
     35  N         17.8960   32.5540   20.3700 N.am   18  THR18      -0.1937
     36  CA        16.5030   32.5190   20.8590 C.3    18  THR18       0.2028
     37  C         15.6870   33.5140   20.0860 C.2    18  THR18       0.2642
     38  O         14.5730   33.2150   19.7510 O.2    18  THR18      -0.2714
     39  CB        16.4090   32.7990   22.3910 C.3    18  THR18       0.1808
     40  OG1       17.0220   31.7280   23.0820 O.3    18  THR18      -0.2208
     41  CG2       15.0050   32.8940   22.8880 C.3    18  THR18       0.0379
     42  N         16.2210   34.7230   19.8560 N.am   19  CYS19      -0.1967
     43  CA        15.5270   35.6910   18.9880 C.3    19  CYS19       0.1712
     44  C         15.2470   35.1580   17.5630 C.2    19  CYS19       0.2296
     45  O         14.1370   35.2780   17.0520 O.2    19  CYS19      -0.2864
     46  CB        16.2920   37.0020   18.8900 C.3    19  CYS19       0.0983
     47  SG        16.4380   37.8690   20.4720 S.3    19  CYS19      -0.0798
     48  N         10.0670   39.3520   17.1820 N.3    29  PHE29      -0.1228
     49  CA        11.3200   39.4860   17.8910 C.3    29  PHE29       0.1721
     50  C         11.0710   39.6700   19.3980 C.2    29  PHE29       0.2437
     51  O         10.4510   40.6610   19.7780 O.2    29  PHE29      -0.2733
     52  CB        12.0840   40.7090   17.3960 C.3    29  PHE29       0.0547
     53  CG        13.4080   40.9300   18.1030 C.ar   29  PHE29      -0.0202
     54  CD1       14.5120   40.1080   17.8310 C.ar   29  PHE29      -0.0042
     55  CD2       13.5580   41.9700   19.0140 C.ar   29  PHE29      -0.0042
     56  CE1       15.7290   40.3290   18.4380 C.ar   29  PHE29      -0.0003
     57  CE2       14.7750   42.1770   19.6510 C.ar   29  PHE29      -0.0003
     58  CZ        15.8700   41.3380   19.3500 C.ar   29  PHE29      -0.0000
     59  N         11.5900   38.7490   20.2560 N.am   30  PRO30      -0.2718
     60  CA        11.3610   38.8150   21.7150 C.3    30  PRO30       0.1535
     61  C         12.3500   39.8260   22.2730 C.2    30  PRO30       0.2598
     62  O         13.5740   39.5830   22.2810 O.2    30  PRO30      -0.2715
     63  CB        11.6920   37.3910   22.1760 C.3    30  PRO30       0.0310
     64  CG        12.7590   36.9880   21.2750 C.3    30  PRO30       0.0237
     65  CD        12.4700   37.6140   19.9180 C.3    30  PRO30       0.0939
     66  N         11.8720   40.9850   22.6850 N.am   31  ASP31      -0.1972
     67  CA        12.8540   41.9700   23.1190 C.3    31  ASP31       0.1709
     68  C         13.3160   41.8180   24.5860 C.2    31  ASP31       0.2293
     69  O         14.1470   42.5830   25.0380 O.2    31  ASP31      -0.2864
     70  CB        12.3660   43.3850   22.8580 C.3    31  ASP31       0.1436
     71  CG        11.2690   43.7780   23.7980 C.2    31  ASP31       0.3671
     72  OD1       10.4330   42.8830   24.1520 O.co2  31  ASP31      -0.2456
     73  OD2       11.2660   44.9850   24.1760 O.co2  31  ASP31      -0.2456
     74  N         14.6520   38.5490   26.1840 N.3    33  THR33      -0.1203
     75  CA        15.0230   37.1260   26.3820 C.3    33  THR33       0.1994
     76  C         15.7320   36.9250   27.7320 C.2    33  THR33       0.2618
     77  O         16.2580   37.8740   28.3350 O.2    33  THR33      -0.2717
     78  CB        15.9160   36.5830   25.2360 C.3    33  THR33       0.1784
     79  OG1       17.0760   37.4050   25.0840 O.3    33  THR33      -0.2211
     80  CG2       15.1510   36.5560   23.9450 C.3    33  THR33       0.0376
     81  N         15.6920   35.6840   28.2020 N.am   34  GLU34      -0.1965
     82  CA        16.4910   35.2460   29.3090 C.3    34  GLU34       0.1733
     83  C         17.6570   34.4410   28.7180 C.2    34  GLU34       0.2616
     84  O         17.5910   34.0200   27.5780 O.2    34  GLU34      -0.2715
     85  CB        15.6360   34.4130   30.2710 C.3    34  GLU34       0.0429
     86  CG        14.7000   35.3040   31.1410 C.3    34  GLU34       0.1163
     87  CD        13.9050   34.4670   32.1300 C.2    34  GLU34       0.3649
     88  OE1       12.9540   33.8150   31.6770 O.co2  34  GLU34      -0.2457
     89  OE2       14.2270   34.4410   33.3580 O.co2  34  GLU34      -0.2457
     90  N         18.7190   34.2230   29.4810 N.am   35  ALA35      -0.1963
     91  CA        19.7760   33.3560   28.9950 C.3    35  ALA35       0.1728
     92  C         19.0960   31.9780   28.9670 C.2    35  ALA35       0.2616
     93  O         18.4550   31.5870   29.9530 O.2    35  ALA35      -0.2715
     94  CB        20.9530   33.4050   29.9420 C.3    35  ALA35       0.0334
     95  N         19.1310   31.3020   27.8270 N.am   36  THR36      -0.1951
     96  CA        18.5340   29.9610   27.6980 C.3    36  THR36       0.1897
     97  C         19.3450   28.9660   28.5210 C.2    36  THR36       0.2313
     98  O         20.5960   28.9930   28.4870 O.2    36  THR36      -0.2863
     99  CB        18.5020   29.4930   26.1920 C.3    36  THR36       0.1794
    100  OG1       17.8370   30.5130   25.3960 O.3    36  THR36      -0.2208
    101  CG2       17.8890   28.0820   26.0040 C.3    36  THR36       0.0378
    102  N         16.2790   25.1390   20.5060 N.3    59  ASP59      -0.1225
    103  CA        17.1440   26.2830   20.7040 C.3    59  ASP59       0.1805
    104  C         18.0940   26.0290   21.8980 C.2    59  ASP59       0.2598
    105  O         17.6450   26.0040   23.0540 O.2    59  ASP59      -0.2718
    106  CB        16.2670   27.5310   20.9030 C.3    59  ASP59       0.1424
    107  CG        17.0070   28.6400   21.4600 C.2    59  ASP59       0.3668
    108  OD1       18.2570   28.6860   21.1990 O.co2  59  ASP59      -0.2456
    109  OD2       16.3730   29.4750   22.1860 O.co2  59  ASP59      -0.2456
    110  N         19.3970   25.8440   21.6400 N.am   60  THR60      -0.1953
    111  CA        20.3040   25.4520   22.7230 C.3    60  THR60       0.1897
    112  C         20.9000   26.6130   23.5200 C.2    60  THR60       0.2313
    113  O         20.9630   27.7620   23.0160 O.2    60  THR60      -0.2863
    114  CB        21.5180   24.6060   22.2390 C.3    60  THR60       0.1794
    115  OG1       22.3390   25.4130   21.3540 O.3    60  THR60      -0.2208
    116  CG2       21.0510   23.3390   21.5280 C.3    60  THR60       0.0378
    117  N         24.3220   28.1770   24.7860 N.3    62  GLY62      -0.1225
    118  CA        25.5270   28.2340   24.0170 C.3    62  GLY62       0.1811
    119  C         26.7920   28.3360   24.8200 C.2    62  GLY62       0.2280
    120  O         27.8460   28.3630   24.2120 O.2    62  GLY62      -0.2866
    121  N         24.0500   36.8580   12.2340 N.3   117  ASN117     -0.1225
    122  CA        22.9130   37.5800   12.7810 C.3   117  ASN117      0.1785
    123  C         23.3310   38.9650   13.2150 C.2   117  ASN117      0.2597
    124  O         24.5290   39.3040   13.2490 O.2   117  ASN117     -0.2718
    125  CB        22.2370   36.7790   13.9430 C.3   117  ASN117      0.1169
    126  CG        20.9260   37.4600   14.4660 C.2   117  ASN117      0.2627
    127  OD1       20.1940   38.0620   13.6820 O.2   117  ASN117     -0.2716
    128  ND2       20.6670   37.3930   15.7770 N.am  117  ASN117     -0.0877
    129  N         22.3550   39.7840   13.5590 N.am  118  LYS118     -0.1980
    130  CA        22.6640   41.1440   14.0300 C.3   118  LYS118      0.1596
    131  C         23.2560   42.0800   12.9510 C.2   118  LYS118      0.2287
    132  O         24.0430   43.0140   13.2510 O.2   118  LYS118     -0.2864
    133  CB        23.5950   41.1130   15.2720 C.3   118  LYS118      0.0298
    134  CG        23.0480   40.2600   16.4760 C.3   118  LYS118      0.0038
    135  CD        23.7650   40.5990   17.7850 C.3   118  LYS118      0.0206
    136  CE        23.2790   39.7550   18.9590 C.3   118  LYS118      0.1093
    137  NZ        24.1770   39.8660   20.1760 N.3   118  LYS118     -0.1314
    138  N         22.0150   44.4200   11.4060 N.3   120  ASP120     -0.1225
    139  CA        21.6960   45.7980   11.7720 C.3   120  ASP120      0.1805
    140  C         22.7570   46.5290   12.5990 C.2   120  ASP120      0.2597
    141  O         22.7990   47.7490   12.6170 O.2   120  ASP120     -0.2718
    142  CB        20.3290   45.8850   12.4380 C.3   120  ASP120      0.1424
    143  CG        20.2570   45.1080   13.7370 C.2   120  ASP120      0.3668
    144  OD1       20.5490   43.8990   13.7100 O.co2 120  ASP120     -0.2456
    145  OD2       19.9130   45.6150   14.8160 O.co2 120  ASP120     -0.2456
    146  N         23.6500   45.8560   13.2690 N.am  121  LEU121     -0.1979
    147  CA        24.6750   46.6690   13.8680 C.3   121  LEU121      0.1596
    148  C         25.7690   47.0580   12.8700 C.2   121  LEU121      0.2287
    149  O         26.8880   46.5760   12.9700 O.2   121  LEU121     -0.2864
    150  CB        25.1770   46.0510   15.1640 C.3   121  LEU121      0.0297
    151  CG        24.0220   45.7380   16.1180 C.3   121  LEU121      0.0022
    152  CD1       24.4310   44.8520   17.2570 C.3   121  LEU121      0.0001
    153  CD2       23.3810   47.0080   16.6270 C.3   121  LEU121      0.0001
    154  N         19.2110   39.9590   10.2830 N.3   146  SER146     -0.1202
    155  CA        18.8820   40.5120   11.5800 C.3   146  SER146      0.2020
    156  C         17.5650   39.9340   12.0590 C.2   146  SER146      0.2619
    157  O         16.5440   40.0960   11.4170 O.2   146  SER146     -0.2717
    158  CB        18.8050   42.0410   11.5170 C.3   146  SER146      0.2103
    159  OG        18.8280   42.6270   12.8010 O.3   146  SER146     -0.2182
    160  N         17.6100   39.2690   13.2010 N.am  147  ALA147     -0.1965
    161  CA        16.3630   38.8720   13.9400 C.3   147  ALA147      0.1728
    162  C         15.6010   40.0790   14.5180 C.2   147  ALA147      0.2616
    163  O         14.4010   40.0170   14.6750 O.2   147  ALA147     -0.2715
    164  CB        16.6500   37.8490   15.0470 C.3   147  ALA147      0.0334
    165  N         16.3010   41.1730   14.8030 N.am  148  LYS148     -0.1977
    166  CA        15.6880   42.3320   15.3780 C.3   148  LYS148      0.1596
    167  C         15.0920   43.3440   14.3740 C.2   148  LYS148      0.2287
    168  O         13.9540   43.7580   14.6100 O.2   148  LYS148     -0.2864
    169  CB        16.6730   43.0680   16.2380 C.3   148  LYS148      0.0298
    170  CG        16.0680   44.2760   16.9400 C.3   148  LYS148      0.0038
    171  CD        17.1280   45.0060   17.7870 C.3   148  LYS148      0.0206
    172  CE        16.4310   45.9960   18.7480 C.3   148  LYS148      0.1093
    173  NZ        17.2510   46.3150   19.9800 N.3   148  LYS148     -0.1314
@<TRIPOS>BOND
     1   154   155    1
     2   138   139    1
     3   157   156    2
     4   158   155    1
     5   158   159    1
     6   155   156    1
     7   139   142    1
     8   139   140    1
     9   156   160   am
    10   121   122    1
    11   142   143    1
    12   140   141    2
    13   140   146   am
    14   122   123    1
    15   122   125    1
    16   148   149    2
    17   148   147    1
    18   131   132    2
    19   131   130    1
    20   160   161    1
    21   123   124    2
    22   123   129   am
    23   146   147    1
    24   129   130    1
    25   127   126    2
    26   144   143   ar
    27   143   145   ar
    28   147   150    1
    29   161   162    1
    30   161   164    1
    31   125   126    1
    32   130   133    1
    33   167   168    2
    34   167   166    1
    35   126   128   am
    36   162   163    2
    37   162   165   am
    38   165   166    1
    39   150   151    1
    40   133   134    1
    41   166   169    1
    42   151   153    1
    43   151   152    1
    44   169   170    1
    45   134   135    1
    46   170   171    1
    47    45    44    2
    48    48    49    1
    49    52    49    1
    50    52    53    1
    51    44    43    1
    52    18    17    2
    53   135   136    1
    54   171   172    1
    55    54    53   ar
    56    54    56   ar
    57    49    50    1
    58    25    24    2
    59    53    55   ar
    60    21    19    1
    61    29    28    2
    62    19    20    1
    63    19    16    1
    64    56    58   ar
    65    17    16    1
    66    17    22   am
    67    24    23    1
    68    24    26   am
    69   172   173    1
    70    27    26    1
    71    27    28    1
    72    27    30    1
    73    46    43    1
    74    46    47    1
    75   136   137    1
    76    43    42    1
    77    31    30    1
    78    31    32    1
    79    55    57   ar
    80    23    22    1
    81    28    35   am
    82    16    15    1
    83    58    57   ar
    84    50    51    2
    85    50    59   am
    86    32    33    1
    87    38    37    2
    88    42    37   am
    89    65    59    1
    90    65    64    1
    91    37    36    1
    92    59    60    1
    93    35    36    1
    94   102   103    1
    95    15     9   am
    96   103   106    1
    97   103   104    1
    98    36    39    1
    99   106   107    1
   100   108   107   ar
   101    10     9    2
   102    33    34    1
   103    64    63    1
   104   115   114    1
   105   107   109   ar
   106   116   114    1
   107     9     8    1
   108   110   104   am
   109   110   111    1
   110    60    63    1
   111    60    61    1
   112   104   105    2
   113   114   111    1
   114    61    62    2
   115    61    66   am
   116    39    41    1
   117    39    40    1
   118    66    67    1
   119   111   112    1
   120    70    67    1
   121    70    71    1
   122     4     3    2
   123     8     7    1
   124     8    11    1
   125   113   112    2
   126    67    68    1
   127     1     2    1
   128     7     3   am
   129     3     2    1
   130    14    12   am
   131    71    72   ar
   132    71    73   ar
   133    11    12    1
   134    80    78    1
   135     2     5    1
   136   118   117    1
   137   118   119    1
   138    12    13    2
   139   120   119    2
   140    68    69    2
   141    79    78    1
   142    78    75    1
   143     5     6    1
   144   100    99    1
   145   101    99    1
   146    74    75    1
   147    99    96    1
   148    75    76    1
   149    84    83    2
   150    96    95    1
   151    96    97    1
   152    76    81   am
   153    76    77    2
   154    95    92   am
   155    81    82    1
   156    98    97    2
   157    83    82    1
   158    83    90   am
   159    92    91    1
   160    92    93    2
   161    91    90    1
   162    91    94    1
   163    82    85    1
   164    85    86    1
   165    86    87    1
   166    88    87   ar
   167    87    89   ar
