@<TRIPOS>MOLECULE
tmp/2g79A00.pdb
 85 78 0 0 0
SMALL
GASTEIGER

@<TRIPOS>ATOM
      1  N         22.8740   -7.2380  -20.1540 N.3    15  PHE15      -0.1241
      2  CA        22.3870   -5.8120  -20.1260 C.3    15  PHE15       0.1605
      3  C         22.3850   -5.2320  -21.5360 C.2    15  PHE15       0.2264
      4  O         21.4300   -4.5930  -21.9490 O.2    15  PHE15      -0.2867
      5  CB        23.2390   -4.9370  -19.2420 C.3    15  PHE15       0.0534
      6  CG        22.6700   -3.5660  -19.0400 C.ar   15  PHE15      -0.0203
      7  CD1       21.4230   -3.3970  -18.5220 C.ar   15  PHE15      -0.0042
      8  CD2       23.4060   -2.4580  -19.3750 C.ar   15  PHE15      -0.0042
      9  CE1       20.9010   -2.1080  -18.3610 C.ar   15  PHE15      -0.0003
     10  CE2       22.8960   -1.1970  -19.2400 C.ar   15  PHE15      -0.0003
     11  CZ        21.6580   -1.0240  -18.7260 C.ar   15  PHE15      -0.0000
     12  N         19.0780   -3.7250  -23.5780 N.3    19  LEU19      -0.1245
     13  CA        19.0000   -2.4110  -24.2730 C.3    19  LEU19       0.1561
     14  C         18.7560   -2.5770  -25.7570 C.2    19  LEU19       0.2260
     15  O         18.0660   -1.7850  -26.3730 O.2    19  LEU19      -0.2867
     16  CB        20.2340   -1.5590  -24.0080 C.3    19  LEU19       0.0270
     17  CG        20.4830   -1.1380  -22.5900 C.3    19  LEU19       0.0019
     18  CD1       21.5580   -0.1160  -22.5560 C.3    19  LEU19       0.0001
     19  CD2       19.1950   -0.5640  -21.9480 C.3    19  LEU19       0.0001
     20  N         17.6080    0.7260  -28.2230 N.3    24  VAL24      -0.1245
     21  CA        18.6420    1.7190  -28.0550 C.3    24  VAL24       0.1561
     22  C         19.6990    1.4700  -29.1280 C.2    24  VAL24       0.2260
     23  O         20.2330    0.3500  -29.2400 O.2    24  VAL24      -0.2867
     24  CB        19.2280    1.6260  -26.6210 C.3    24  VAL24       0.0252
     25  CG1       20.2270    2.7240  -26.3800 C.3    24  VAL24       0.0019
     26  CG2       18.0840    1.6990  -25.6010 C.3    24  VAL24       0.0019
     27  N         24.5830    4.7950  -28.4100 N.3    28  LEU28      -0.1245
     28  CA        24.1100    5.1350  -27.1100 C.3    28  LEU28       0.1561
     29  C         24.2400    3.8980  -26.2240 C.2    28  LEU28       0.2260
     30  O         24.6120    3.9980  -25.0800 O.2    28  LEU28      -0.2867
     31  CB        22.6480    5.5210  -27.2030 C.3    28  LEU28       0.0270
     32  CG        22.3100    6.9760  -27.0290 C.3    28  LEU28       0.0019
     33  CD1       20.7580    7.1370  -26.9140 C.3    28  LEU28       0.0001
     34  CD2       23.0040    7.6170  -25.7970 C.3    28  LEU28       0.0001
     35  N         27.6640    3.5300  -24.5830 N.3    31  ILE31      -0.1231
     36  CA        27.8320    4.4170  -23.4270 C.3    31  ILE31       0.1692
     37  C         27.1690    3.7690  -22.2020 C.2    31  ILE31       0.2591
     38  O         27.7470    3.7250  -21.1160 O.2    31  ILE31      -0.2718
     39  CB        27.1660    5.7800  -23.6980 C.3    31  ILE31       0.0266
     40  CG1       27.9360    6.4860  -24.8130 C.3    31  ILE31       0.0019
     41  CG2       27.1870    6.6660  -22.4600 C.3    31  ILE31       0.0020
     42  CD1       27.3270    7.7780  -25.3080 C.3    31  ILE31       0.0001
     43  N         25.9510    3.2890  -22.4060 N.am   32  ALA32      -0.1980
     44  CA        25.1320    2.7300  -21.3070 C.3    32  ALA32       0.1597
     45  C         25.6770    1.4420  -20.7230 C.2    32  ALA32       0.2287
     46  O         25.7050    1.2470  -19.4880 O.2    32  ALA32      -0.2864
     47  CB        23.7790    2.4640  -21.7900 C.3    32  ALA32       0.0319
     48  N         26.8050    0.8960  -16.9420 N.3    36  ALA36      -0.1245
     49  CA        25.9570   -0.0250  -16.1250 C.3    36  ALA36       0.1562
     50  C         26.6960   -1.2320  -15.5690 C.2    36  ALA36       0.2260
     51  O         26.1190   -2.0120  -14.7790 O.2    36  ALA36      -0.2867
     52  CB        24.7840   -0.4960  -16.9220 C.3    36  ALA36       0.0290
     53  N         26.8820    7.6930  -15.8550 N.3    58  VAL58      -0.1231
     54  CA        25.9920    8.2970  -16.8510 C.3    58  VAL58       0.1692
     55  C         24.5550    8.5190  -16.4450 C.2    58  VAL58       0.2591
     56  O         23.8090    9.1400  -17.1760 O.2    58  VAL58      -0.2718
     57  CB        26.0070    7.5020  -18.1440 C.3    58  VAL58       0.0266
     58  CG1       27.3890    7.3730  -18.6520 C.3    58  VAL58       0.0020
     59  CG2       25.3780    6.1540  -17.9610 C.3    58  VAL58       0.0020
     60  N         24.1230    7.9960  -15.2800 N.am   59  ARG59      -0.1980
     61  CA        22.7450    8.1450  -14.8930 C.3    59  ARG59       0.1597
     62  C         22.6220    7.6980  -13.4590 C.2    59  ARG59       0.2287
     63  O         23.2180    6.7140  -13.0850 O.2    59  ARG59      -0.2864
     64  CB        21.8220    7.2560  -15.7650 C.3    59  ARG59       0.0334
     65  CG        20.3600    7.3010  -15.3950 C.3    59  ARG59       0.0492
     66  CD        19.6040    6.4420  -16.3690 C.3    59  ARG59       0.2205
     67  NE        18.2430    6.0280  -15.9990 N.pl3  59  ARG59      -0.0865
     68  CZ        17.1680    6.8080  -16.0720 C.cat  59  ARG59       0.5346
     69  NH1       17.2760    8.0820  -16.4390 N.pl3  59  ARG59       0.1354
     70  NH2       15.9640    6.3190  -15.7560 N.pl3  59  ARG59       0.1354
     71  N         13.8940    1.0630  -17.5810 N.3    76  VAL76      -0.1231
     72  CA        15.3350    1.1100  -17.5710 C.3    76  VAL76       0.1692
     73  C         15.8450    2.0750  -18.6160 C.2    76  VAL76       0.2592
     74  O         16.9180    2.6780  -18.4360 O.2    76  VAL76      -0.2718
     75  CB        15.9630   -0.2870  -17.7110 C.3    76  VAL76       0.0266
     76  CG1       15.6120   -0.9110  -19.0390 C.3    76  VAL76       0.0020
     77  CG2       17.4570   -0.2030  -17.4790 C.3    76  VAL76       0.0020
     78  N         15.0780    2.2520  -19.6940 N.am   77  ASP77      -0.1974
     79  CA        15.4390    3.2100  -20.7510 C.3    77  ASP77       0.1709
     80  C         14.7840    4.5710  -20.6650 C.2    77  ASP77       0.2293
     81  O         14.8280    5.3390  -21.6110 O.2    77  ASP77      -0.2864
     82  CB        15.2640    2.5950  -22.1480 C.3    77  ASP77       0.1436
     83  CG        13.8520    2.2230  -22.4430 C.2    77  ASP77       0.3671
     84  OD1       13.1390    1.9050  -21.5020 O.co2  77  ASP77      -0.2456
     85  OD2       13.4330    2.2550  -23.6220 O.co2  77  ASP77      -0.2456
@<TRIPOS>BOND
     1    23    22    2
     2    22    21    1
     3    27    28    1
     4    20    21    1
     5    21    24    1
     6    31    28    1
     7    31    32    1
     8    28    29    1
     9    32    33    1
    10    32    34    1
    11    24    25    1
    12    24    26    1
    13    15    14    2
    14    29    30    2
    15    14    13    1
    16    42    40    1
    17    40    39    1
    18    35    36    1
    19    13    16    1
    20    13    12    1
    21    16    17    1
    22    39    36    1
    23    39    41    1
    24    85    83   ar
    25    36    37    1
    26    17    18    1
    27    17    19    1
    28    83    82    1
    29    83    84   ar
    30    43    37   am
    31    43    44    1
    32    37    38    2
    33    82    79    1
    34     4     3    2
    35    47    44    1
    36    81    80    2
    37     3     2    1
    38    44    45    1
    39    79    80    1
    40    79    78    1
    41    45    46    2
    42     1     2    1
    43     2     5    1
    44    78    73   am
    45     8    10   ar
    46     8     6   ar
    47     5     6    1
    48    10    11   ar
    49     6     7   ar
    50    76    75    1
    51    11     9   ar
    52    58    57    1
    53    73    74    2
    54    73    72    1
    55     7     9   ar
    56    57    59    1
    57    57    54    1
    58    75    72    1
    59    75    77    1
    60    71    72    1
    61    56    55    2
    62    48    49    1
    63    52    49    1
    64    54    55    1
    65    54    53    1
    66    55    60   am
    67    69    68    1
    68    66    67    1
    69    66    65    1
    70    49    50    1
    71    68    67    2
    72    68    70    1
    73    64    65    1
    74    64    61    1
    75    50    51    2
    76    60    61    1
    77    61    62    1
    78    62    63    2
