@<TRIPOS>MOLECULE
tmp/2g7cB01.pdb
 123 116 0 0 0
SMALL
GASTEIGER

@<TRIPOS>ATOM
      1  N         10.6830    0.3530   19.7280 N.3   146  ASN146     -0.1225
      2  CA        10.6680    1.2480   20.8810 C.3   146  ASN146      0.1785
      3  C          9.4860    2.2180   20.9590 C.2   146  ASN146      0.2597
      4  O          9.5380    3.1830   21.7240 O.2   146  ASN146     -0.2718
      5  CB        11.9780    2.0440   20.9290 C.3   146  ASN146      0.1169
      6  CG        13.2050    1.1500   20.8990 C.2   146  ASN146      0.2627
      7  OD1       13.4730    0.4100   21.8480 O.2   146  ASN146     -0.2716
      8  ND2       13.9540    1.2080   19.8020 N.am  146  ASN146     -0.0877
      9  N          8.4370    1.9700   20.1740 N.am  147  LYS147     -0.1966
     10  CA         7.2430    2.8190   20.1890 C.3   147  LYS147      0.1728
     11  C          6.0180    1.9480   20.4390 C.2   147  LYS147      0.2616
     12  O          5.8920    0.8680   19.8560 O.2   147  LYS147     -0.2715
     13  CB         7.0990    3.5590   18.8630 C.3   147  LYS147      0.0311
     14  CG         8.1970    4.5850   18.6560 C.3   147  LYS147      0.0038
     15  CD         8.2280    5.0740   17.2360 C.3   147  LYS147      0.0206
     16  CE         9.4620    5.9290   17.0030 C.3   147  LYS147      0.1093
     17  NZ         9.5720    6.3160   15.5810 N.3   147  LYS147     -0.1314
     18  N          5.1280    2.4140   21.3140 N.am  148  ASN148     -0.1972
     19  CA         3.9320    1.6580   21.6670 C.3   148  ASN148      0.1688
     20  C          2.7090    2.0740   20.8570 C.2   148  ASN148      0.2292
     21  O          2.4690    3.2640   20.6430 O.2   148  ASN148     -0.2864
     22  CB         3.5910    1.8330   23.1500 C.3   148  ASN148      0.1181
     23  CG         4.7980    1.6990   24.0560 C.2   148  ASN148      0.2629
     24  OD1        5.7620    1.0130   23.7220 O.2   148  ASN148     -0.2716
     25  ND2        4.7400    2.3450   25.2240 N.am  148  ASN148     -0.0877
     26  N          0.7550   -1.9620   30.7040 N.3   165  ASN165     -0.1240
     27  CA         1.4450   -1.1490   31.6970 C.3   165  ASN165      0.1653
     28  C          0.6110    0.0380   32.1790 C.2   165  ASN165      0.2266
     29  O          1.1270    0.9530   32.8100 O.2   165  ASN165     -0.2867
     30  CB         2.7810   -0.6590   31.1280 C.3   165  ASN165      0.1155
     31  CG         3.6010   -1.7880   30.5080 C.2   165  ASN165      0.2627
     32  OD1        3.8610   -2.8110   31.1490 O.2   165  ASN165     -0.2716
     33  ND2        4.0050   -1.6070   29.2530 N.am  165  ASN165     -0.0877
     34  N         -2.2940    4.4960   28.3920 N.3   168  GLU168     -0.1245
     35  CA        -1.3380    5.3510   27.6960 C.3   168  GLU168      0.1567
     36  C         -2.0920    6.2560   26.7230 C.2   168  GLU168      0.2260
     37  O         -3.2280    5.9650   26.3410 O.2   168  GLU168     -0.2867
     38  CB        -0.3260    4.4940   26.9240 C.3   168  GLU168      0.0388
     39  CG         0.5390    3.5990   27.8210 C.3   168  GLU168      0.1160
     40  CD         1.5780    2.8130   27.0400 C.2   168  GLU168      0.3649
     41  OE1        2.0070    3.2990   25.9630 O.co2 168  GLU168     -0.2457
     42  OE2        1.9800    1.7210   27.5120 O.co2 168  GLU168     -0.2457
     43  N          3.2030   15.4550   19.9380 N.3   176  ASP176     -0.1239
     44  CA         4.4960   15.6100   20.6200 C.3   176  ASP176      0.1674
     45  C          5.5690   15.4040   19.5600 C.2   176  ASP176      0.2266
     46  O          5.7310   14.3020   19.0510 O.2   176  ASP176     -0.2867
     47  CB         4.6320   14.5730   21.7450 C.3   176  ASP176      0.1410
     48  CG         6.0270   14.5570   22.3710 C.2   176  ASP176      0.3668
     49  OD1        6.9570   13.9920   21.7620 O.co2 176  ASP176     -0.2456
     50  OD2        6.1930   15.1120   23.4690 O.co2 176  ASP176     -0.2456
     51  N          0.7180    6.6950   18.1170 N.3   183  GLN183     -0.1231
     52  CA         1.9570    6.4700   18.8580 C.3   183  GLN183      0.1698
     53  C          1.7890    6.9240   20.3060 C.2   183  GLN183      0.2592
     54  O          1.4140    8.0630   20.5490 O.2   183  GLN183     -0.2718
     55  CB         3.0760    7.2730   18.2170 C.3   183  GLN183      0.0381
     56  CG         4.4540    7.0130   18.7820 C.3   183  GLN183      0.0905
     57  CD         5.4950    7.8520   18.0660 C.2   183  GLN183      0.2608
     58  OE1        5.3680    8.1180   16.8720 O.2   183  GLN183     -0.2717
     59  NE2        6.5250    8.2630   18.7810 N.am  183  GLN183     -0.0878
     60  N          2.0660    6.0480   21.2700 N.am  184  ALA184     -0.1966
     61  CA         1.9290    6.4430   22.6730 C.3   184  ALA184      0.1728
     62  C          2.9780    7.5030   22.9410 C.2   184  ALA184      0.2616
     63  O          4.1510    7.3440   22.5590 O.2   184  ALA184     -0.2715
     64  CB         2.1500    5.2460   23.5950 C.3   184  ALA184      0.0334
     65  N          2.5800    8.5920   23.5880 N.am  185  ILE185     -0.1963
     66  CA         3.5530    9.6420   23.8530 C.3   185  ILE185      0.1727
     67  C          3.8570    9.8950   25.3120 C.2   185  ILE185      0.2616
     68  O          3.1270    9.4570   26.2170 O.2   185  ILE185     -0.2715
     69  CB         3.1270   11.0000   23.2490 C.3   185  ILE185      0.0290
     70  CG1        1.7520   11.4130   23.7970 C.3   185  ILE185      0.0022
     71  CG2        3.1170   10.9110   21.7270 C.3   185  ILE185      0.0023
     72  CD1        1.3980   12.8820   23.5370 C.3   185  ILE185      0.0001
     73  N          4.9670   10.5990   25.5180 N.am  186  ARG186     -0.1977
     74  CA         5.4000   11.0050   26.8420 C.3   186  ARG186      0.1597
     75  C          4.3580   12.0370   27.2310 C.2   186  ARG186      0.2287
     76  O          4.0190   12.9080   26.4370 O.2   186  ARG186     -0.2864
     77  CB         6.7630   11.6900   26.7740 C.3   186  ARG186      0.0334
     78  CG         7.2390   12.1990   28.1190 C.3   186  ARG186      0.0492
     79  CD         7.7020   11.0390   28.9670 C.3   186  ARG186      0.2205
     80  NE         9.0280   10.5880   28.5500 N.pl3 186  ARG186     -0.0865
     81  CZ        10.1660   11.1210   28.9830 C.cat 186  ARG186      0.5346
     82  NH1       10.1370   12.1220   29.8540 N.pl3 186  ARG186      0.1354
     83  NH2       11.3310   10.6610   28.5360 N.pl3 186  ARG186      0.1354
     84  N          3.5780   13.6730   31.0540 N.3   188  GLN188     -0.1245
     85  CA         3.7690   13.6400   32.5010 C.3   188  GLN188      0.1566
     86  C          3.1750   14.7400   33.3650 C.2   188  GLN188      0.2260
     87  O          3.3050   15.9240   33.0590 O.2   188  GLN188     -0.2867
     88  CB         5.2710   13.5860   32.7900 C.3   188  GLN188      0.0367
     89  CG         6.0020   12.4410   32.1190 C.3   188  GLN188      0.0905
     90  CD         7.5050   12.6260   32.1620 C.2   188  GLN188      0.2608
     91  OE1        8.0850   13.2880   31.3040 O.2   188  GLN188     -0.2717
     92  NE2        8.1410   12.0590   33.1760 N.am  188  GLN188     -0.0878
     93  N          3.6480   10.8470   36.5620 N.3   203  ASN203     -0.1225
     94  CA         5.0330   10.8750   36.1100 C.3   203  ASN203      0.1785
     95  C          5.3880    9.7360   35.1540 C.2   203  ASN203      0.2597
     96  O          6.2630    9.8870   34.3060 O.2   203  ASN203     -0.2718
     97  CB         5.9760   10.8620   37.3200 C.3   203  ASN203      0.1169
     98  CG         7.3580   11.3950   36.9850 C.2   203  ASN203      0.2627
     99  OD1        7.4980   12.4920   36.4430 O.2   203  ASN203     -0.2716
    100  ND2        8.3860   10.6210   37.3070 N.am  203  ASN203     -0.0877
    101  N          4.6960    8.6070   35.2730 N.am  204  ASN204     -0.1960
    102  CA         4.9700    7.4530   34.4180 C.3   204  ASN204      0.1819
    103  C          4.2730    7.5100   33.0520 C.2   204  ASN204      0.2622
    104  O          4.2750    6.5200   32.3130 O.2   204  ASN204     -0.2715
    105  CB         4.5570    6.1740   35.1410 C.3   204  ASN204      0.1195
    106  CG         3.0840    6.1540   35.4800 C.2   204  ASN204      0.2630
    107  OD1        2.3830    7.1510   35.2970 O.2   204  ASN204     -0.2716
    108  ND2        2.6060    5.0220   35.9840 N.am  204  ASN204     -0.0877
    109  N          3.6970    8.6640   32.7190 N.am  205  SER205     -0.1936
    110  CA         2.9840    8.8480   31.4510 C.3   205  SER205      0.2055
    111  C          1.7860    7.9120   31.2990 C.2   205  SER205      0.2642
    112  O          1.4140    7.5250   30.1780 O.2   205  SER205     -0.2714
    113  CB         3.9320    8.6490   30.2660 C.3   205  SER205      0.2130
    114  OG         4.8380    9.7260   30.1610 O.3   205  SER205     -0.2179
    115  N          1.1920    7.5420   32.4290 N.am  206  LYS206     -0.1977
    116  CA         0.0210    6.6740   32.4340 C.3   206  LYS206      0.1596
    117  C         -1.1170    7.4270   33.1170 C.2   206  LYS206      0.2287
    118  O         -0.8940    8.1570   34.0930 O.2   206  LYS206     -0.2864
    119  CB         0.3230    5.3750   33.1930 C.3   206  LYS206      0.0298
    120  CG         1.5700    4.6370   32.6970 C.3   206  LYS206      0.0038
    121  CD         1.3720    4.0430   31.2990 C.3   206  LYS206      0.0206
    122  CE         2.6120    3.2680   30.8420 C.3   206  LYS206      0.1093
    123  NZ         3.7660    4.1590   30.4990 N.3   206  LYS206     -0.1314
@<TRIPOS>BOND
     1    17    16    1
     2    58    57    2
     3    16    15    1
     4    15    14    1
     5    57    59   am
     6    57    56    1
     7    51    52    1
     8    55    56    1
     9    55    52    1
    10    14    13    1
    11    52    53    1
    12    13    10    1
    13    46    45    2
    14    45    44    1
    15     1     2    1
    16     8     6   am
    17    12    11    2
    18    43    44    1
    19     9    10    1
    20     9     3   am
    21    10    11    1
    22    53    54    2
    23    53    60   am
    24    11    18   am
    25    44    47    1
    26    21    20    2
    27    20    19    1
    28     2     5    1
    29     2     3    1
    30     6     5    1
    31     6     7    2
    32     3     4    2
    33    60    61    1
    34    18    19    1
    35    19    22    1
    36    71    69    1
    37    47    48    1
    38    49    48   ar
    39    48    50   ar
    40    63    62    2
    41    61    62    1
    42    61    64    1
    43    62    65   am
    44    22    23    1
    45    69    70    1
    46    69    66    1
    47    72    70    1
    48    65    66    1
    49    24    23    2
    50    66    67    1
    51    23    25   am
    52    67    73   am
    53    67    68    2
    54    73    74    1
    55    41    40   ar
    56    37    36    2
    57    76    75    2
    58    36    35    1
    59    77    74    1
    60    77    78    1
    61    74    75    1
    62    38    35    1
    63    38    39    1
    64    40    42   ar
    65    40    39    1
    66    35    34    1
    67    78    79    1
    68    83    81    1
    69    80    79    1
    70    80    81    2
    71    81    82    1
    72    33    31   am
    73   114   113    1
    74   112   111    2
    75   113   110    1
    76   123   122    1
    77    31    30    1
    78    31    32    2
    79    26    27    1
    80   122   121    1
    81    84    85    1
    82    30    27    1
    83   111   110    1
    84   111   115   am
    85   121   120    1
    86    91    90    2
    87   110   109    1
    88    27    28    1
    89    89    90    1
    90    89    88    1
    91    90    92   am
    92    28    29    2
    93   104   103    2
    94   115   116    1
    95   116   117    1
    96   116   119    1
    97    85    88    1
    98    85    86    1
    99   120   119    1
   100   109   103   am
   101   103   102    1
   102    87    86    2
   103   117   118    2
   104    96    95    2
   105   102   105    1
   106   102   101    1
   107   105   106    1
   108    95   101   am
   109    95    94    1
   110   107   106    2
   111   106   108   am
   112    94    93    1
   113    94    97    1
   114    99    98    2
   115    98   100   am
   116    98    97    1
