@<TRIPOS>MOLECULE
tmp/2g7cB00.pdb
 150 144 0 0 0
SMALL
GASTEIGER

@<TRIPOS>ATOM
      1  N          5.9820  -26.9810  -11.2070 N.3    54  ASP54      -0.1225
      2  CA         5.8410  -25.5580  -11.4870 C.3    54  ASP54       0.1805
      3  C          4.7620  -24.8270  -10.7010 C.2    54  ASP54       0.2598
      4  O          4.2910  -23.7680  -11.1190 O.2    54  ASP54      -0.2718
      5  CB         5.6330  -25.3360  -12.9860 C.3    54  ASP54       0.1424
      6  CG         6.9460  -25.2530  -13.7400 C.2    54  ASP54       0.3668
      7  OD1        7.7280  -24.3200  -13.4530 O.co2  54  ASP54      -0.2456
      8  OD2        7.2010  -26.1150  -14.6100 O.co2  54  ASP54      -0.2456
      9  N          4.3690  -25.3890   -9.5640 N.am   55  LYS55      -0.1966
     10  CA         3.3730  -24.7470   -8.7230 C.3    55  LYS55       0.1728
     11  C          3.7910  -24.8010   -7.2670 C.2    55  LYS55       0.2616
     12  O          4.6030  -25.6400   -6.8710 O.2    55  LYS55      -0.2715
     13  CB         1.9960  -25.3720   -8.9240 C.3    55  LYS55       0.0311
     14  CG         1.3730  -24.9600  -10.2410 C.3    55  LYS55       0.0038
     15  CD        -0.1270  -25.1630  -10.2640 C.3    55  LYS55       0.0206
     16  CE        -0.7330  -24.5140  -11.5070 C.3    55  LYS55       0.1093
     17  NZ        -2.2120  -24.6990  -11.5930 N.3    55  LYS55      -0.1314
     18  N          3.2390  -23.8860   -6.4760 N.am   56  HIS56      -0.1973
     19  CA         3.5820  -23.7900   -5.0730 C.3    56  HIS56       0.1656
     20  C          2.4830  -24.3280   -4.1620 C.2    56  HIS56       0.2291
     21  O          1.2920  -24.0880   -4.3740 O.2    56  HIS56      -0.2864
     22  CB         3.8820  -22.3270   -4.7180 C.3    56  HIS56       0.0771
     23  CG         4.8640  -21.6630   -5.6400 C.ar   56  HIS56       0.0820
     24  ND1        5.1060  -20.3040   -5.6080 N.ar   56  HIS56      -0.2267
     25  CD2        5.6540  -22.1620   -6.6170 C.ar   56  HIS56       0.1154
     26  CE1        6.0010  -19.9980   -6.5300 C.ar   56  HIS56       0.1986
     27  NE2        6.3520  -21.1060   -7.1580 N.ar   56  HIS56      -0.2212
     28  N         10.1580  -16.2080   -1.3700 N.3    74  ASP74      -0.1239
     29  CA         9.8800  -14.8990   -1.9530 C.3    74  ASP74       0.1674
     30  C          8.7940  -14.1050   -1.2360 C.2    74  ASP74       0.2266
     31  O          8.2200  -13.1800   -1.8080 O.2    74  ASP74      -0.2867
     32  CB         9.5010  -15.0510   -3.4270 C.3    74  ASP74       0.1410
     33  CG        10.5750  -15.7630   -4.2340 C.2    74  ASP74       0.3668
     34  OD1       11.7730  -15.5270   -3.9620 O.co2  74  ASP74      -0.2456
     35  OD2       10.2210  -16.5480   -5.1430 O.co2  74  ASP74      -0.2456
     36  N          2.7120  -16.1100    0.4070 N.3    77  GLU77      -0.1231
     37  CA         1.8490  -16.3620   -0.7330 C.3    77  GLU77       0.1699
     38  C          0.5020  -16.8780   -0.2330 C.2    77  GLU77       0.2592
     39  O          0.3790  -17.3270    0.9050 O.2    77  GLU77      -0.2718
     40  CB         2.5020  -17.3950   -1.6690 C.3    77  GLU77       0.0402
     41  CG         3.8020  -16.9020   -2.3030 C.3    77  GLU77       0.1161
     42  CD         4.4270  -17.9020   -3.2760 C.2    77  GLU77       0.3649
     43  OE1        3.6760  -18.5940   -3.9870 O.co2  77  GLU77      -0.2457
     44  OE2        5.6730  -17.9800   -3.3350 O.co2  77  GLU77      -0.2457
     45  N         -0.5090  -16.8040   -1.0860 N.am   78  TYR78      -0.1976
     46  CA        -1.8440  -17.2560   -0.7220 C.3    78  TYR78       0.1639
     47  C         -2.1700  -18.6040   -1.3690 C.2    78  TYR78       0.2290
     48  O         -2.4040  -18.6880   -2.5690 O.2    78  TYR78      -0.2864
     49  CB        -2.8680  -16.2070   -1.1470 C.3    78  TYR78       0.0560
     50  CG        -4.3110  -16.5650   -0.9070 C.ar   78  TYR78      -0.0198
     51  CD1       -4.6870  -17.3840    0.1550 C.ar   78  TYR78      -0.0009
     52  CD2       -5.3180  -16.0340   -1.7190 C.ar   78  TYR78      -0.0009
     53  CE1       -6.0230  -17.6660    0.4020 C.ar   78  TYR78       0.0417
     54  CE2       -6.6520  -16.3050   -1.4740 C.ar   78  TYR78       0.0417
     55  CZ        -6.9980  -17.1210   -0.4140 C.ar   78  TYR78       0.1957
     56  OH        -8.3230  -17.3770   -0.1570 O.3    78  TYR78      -0.2866
     57  N         -9.1400  -18.4820   -8.2860 N.3    85  ASP85      -0.1225
     58  CA        -8.6240  -17.6930   -9.3920 C.3    85  ASP85       0.1805
     59  C         -8.1460  -18.6020  -10.5180 C.2    85  ASP85       0.2597
     60  O         -7.5040  -19.6240  -10.2700 O.2    85  ASP85      -0.2718
     61  CB        -7.4620  -16.8160   -8.9260 C.3    85  ASP85       0.1424
     62  CG        -6.8970  -15.9620  -10.0420 C.2    85  ASP85       0.3668
     63  OD1       -7.6200  -15.0650  -10.5220 O.co2  85  ASP85      -0.2456
     64  OD2       -5.7360  -16.1900  -10.4450 O.co2  85  ASP85      -0.2456
     65  N         -8.4640  -18.2180  -11.7520 N.am   86  ALA86      -0.1979
     66  CA        -8.0720  -18.9790  -12.9340 C.3    86  ALA86       0.1597
     67  C         -8.1280  -20.4920  -12.7070 C.2    86  ALA86       0.2287
     68  O         -7.1840  -21.2140  -13.0360 O.2    86  ALA86      -0.2864
     69  CB        -6.6660  -18.5640  -13.3780 C.3    86  ALA86       0.0319
     70  N         -7.5760  -22.4020  -10.3080 N.3    88  ASN88      -0.1240
     71  CA        -6.4050  -22.9940   -9.6700 C.3    88  ASN88       0.1653
     72  C         -6.8080  -24.2660   -8.9300 C.2    88  ASN88       0.2266
     73  O         -7.9610  -24.4290   -8.5340 O.2    88  ASN88      -0.2867
     74  CB        -5.7900  -22.0220   -8.6630 C.3    88  ASN88       0.1155
     75  CG        -6.6870  -21.7920   -7.4660 C.2    88  ASN88       0.2627
     76  OD1       -7.6640  -21.0470   -7.5390 O.2    88  ASN88      -0.2716
     77  ND2       -6.3720  -22.4520   -6.3580 N.am   88  ASN88      -0.0877
     78  N         -3.0510  -24.5780   -4.1520 N.3    92  GLN92      -0.1231
     79  CA        -2.0850  -23.9120   -5.0130 C.3    92  GLN92       0.1698
     80  C         -1.9470  -22.4290   -4.6510 C.2    92  GLN92       0.2592
     81  O         -2.9270  -21.7910   -4.2890 O.2    92  GLN92      -0.2718
     82  CB        -2.5570  -24.0240   -6.4600 C.3    92  GLN92       0.0381
     83  CG        -1.6990  -23.3150   -7.4620 C.3    92  GLN92       0.0905
     84  CD        -2.4700  -22.9830   -8.7230 C.2    92  GLN92       0.2608
     85  OE1       -3.1870  -23.8290   -9.2690 O.2    92  GLN92      -0.2717
     86  NE2       -2.3290  -21.7490   -9.1940 N.am   92  GLN92      -0.0878
     87  N         -0.7340  -21.8920   -4.7410 N.am   93  ALA93      -0.1966
     88  CA        -0.5150  -20.4700   -4.4650 C.3    93  ALA93       0.1728
     89  C         -1.0580  -19.7740   -5.7090 C.2    93  ALA93       0.2616
     90  O         -0.7490  -20.1840   -6.8330 O.2    93  ALA93      -0.2715
     91  CB         0.9680  -20.1740   -4.3000 C.3    93  ALA93       0.0334
     92  N         -1.8610  -18.7320   -5.5250 N.am   94  ILE94      -0.1963
     93  CA        -2.4550  -18.0630   -6.6730 C.3    94  ILE94       0.1727
     94  C         -2.0720  -16.6150   -6.8990 C.2    94  ILE94       0.2616
     95  O         -1.3590  -15.9950   -6.1000 O.2    94  ILE94      -0.2715
     96  CB        -3.9780  -18.0970   -6.5870 C.3    94  ILE94       0.0290
     97  CG1       -4.4340  -17.3240   -5.3500 C.3    94  ILE94       0.0022
     98  CG2       -4.4630  -19.5360   -6.5350 C.3    94  ILE94       0.0023
     99  CD1       -5.9280  -17.1440   -5.2460 C.3    94  ILE94       0.0001
    100  N         -2.5610  -16.0880   -8.0170 N.am   95  ARG95      -0.1977
    101  CA        -2.3440  -14.6980   -8.3630 C.3    95  ARG95       0.1597
    102  C         -3.3860  -13.9860   -7.5170 C.2    95  ARG95       0.2287
    103  O         -4.5580  -14.3510   -7.5330 O.2    95  ARG95      -0.2864
    104  CB        -2.6230  -14.4620   -9.8520 C.3    95  ARG95       0.0334
    105  CG        -2.3430  -13.0410  -10.3330 C.3    95  ARG95       0.0492
    106  CD        -2.6350  -12.8990  -11.8270 C.3    95  ARG95       0.2205
    107  NE        -3.7500  -11.9900  -12.0860 N.pl3  95  ARG95      -0.0865
    108  CZ        -5.0110  -12.2200  -11.7310 C.cat  95  ARG95       0.5346
    109  NH1       -5.3370  -13.3370  -11.1000 N.pl3  95  ARG95       0.1354
    110  NH2       -5.9470  -11.3200  -11.9940 N.pl3  95  ARG95       0.1354
    111  N         -3.5560   -9.9010   -6.5190 N.3    97  GLN97      -0.1245
    112  CA        -2.8890   -8.6040   -6.5760 C.3    97  GLN97       0.1566
    113  C         -3.5940   -7.3490   -6.0750 C.2    97  GLN97       0.2260
    114  O         -4.7810   -7.1260   -6.3380 O.2    97  GLN97      -0.2867
    115  CB        -2.4710   -8.3280   -8.0150 C.3    97  GLN97       0.0367
    116  CG        -1.4400   -9.2650   -8.5900 C.3    97  GLN97       0.0905
    117  CD        -1.3140   -9.0820  -10.0880 C.2    97  GLN97       0.2608
    118  OE1       -2.2160   -9.4510  -10.8380 O.2    97  GLN97      -0.2717
    119  NE2       -0.2030   -8.4930  -10.5310 N.am   97  GLN97      -0.0878
    120  N          1.3130   -5.9560   -5.5830 N.3   112  ASN112     -0.1225
    121  CA         1.2760   -6.2770   -7.0020 C.3   112  ASN112      0.1785
    122  C          1.9540   -7.6030   -7.3400 C.2   112  ASN112      0.2597
    123  O          1.6060   -8.2520   -8.3250 O.2   112  ASN112     -0.2718
    124  CB         1.9240   -5.1450   -7.8030 C.3   112  ASN112      0.1169
    125  CG         1.6160   -5.2340   -9.2890 C.2   112  ASN112      0.2627
    126  OD1        0.4530   -5.3300   -9.6890 O.2   112  ASN112     -0.2716
    127  ND2        2.6540   -5.1910  -10.1110 N.am  112  ASN112     -0.0877
    128  N          2.9180   -7.9970   -6.5160 N.am  113  ASN113     -0.1960
    129  CA         3.6560   -9.2400   -6.7110 C.3   113  ASN113      0.1819
    130  C          2.9450  -10.4600   -6.1170 C.2   113  ASN113      0.2622
    131  O          3.5470  -11.5210   -5.9730 O.2   113  ASN113     -0.2715
    132  CB         5.0450   -9.1080   -6.0840 C.3   113  ASN113      0.1195
    133  CG         4.9800   -8.8240   -4.5920 C.2   113  ASN113      0.2630
    134  OD1        3.8920   -8.6810   -4.0270 O.2   113  ASN113     -0.2716
    135  ND2        6.1440   -8.7460   -3.9460 N.am  113  ASN113     -0.0877
    136  N          1.6700  -10.3150   -5.7750 N.am  114  SER114     -0.1936
    137  CA         0.9200  -11.4290   -5.1990 C.3   114  SER114      0.2055
    138  C          1.5090  -11.9530   -3.8820 C.2   114  SER114      0.2642
    139  O          1.3320  -13.1180   -3.5320 O.2   114  SER114     -0.2714
    140  CB         0.8200  -12.5800   -6.2110 C.3   114  SER114      0.2130
    141  OG        -0.1230  -12.2850   -7.2280 O.3   114  SER114     -0.2179
    142  N          2.2120  -11.0900   -3.1560 N.am  115  LYS115     -0.1977
    143  CA         2.8020  -11.4670   -1.8770 C.3   115  LYS115      0.1596
    144  C          2.1980  -10.5710   -0.7960 C.2   115  LYS115      0.2287
    145  O          1.9640   -9.3870   -1.0260 O.2   115  LYS115     -0.2864
    146  CB         4.3170  -11.2800   -1.9110 C.3   115  LYS115      0.0298
    147  CG         5.0130  -11.9930   -3.0630 C.3   115  LYS115      0.0038
    148  CD         4.9470  -13.5140   -2.9270 C.3   115  LYS115      0.0206
    149  CE         5.5730  -14.1860   -4.1460 C.3   115  LYS115      0.1093
    150  NZ         4.7960  -13.8480   -5.3750 N.3   115  LYS115     -0.1314
@<TRIPOS>BOND
     1     8     6   ar
     2     6     7   ar
     3     6     5    1
     4    69    66    1
     5    68    67    2
     6     5     2    1
     7    66    67    1
     8    66    65    1
     9   107   106    1
    10   107   108    2
    11   110   108    1
    12   106   105    1
    13    65    59   am
    14   108   109    1
    15    17    16    1
    16    16    15    1
    17     2     1    1
    18     2     3    1
    19     4     3    2
    20   118   117    2
    21     3     9   am
    22   119   117   am
    23    63    62   ar
    24    59    60    2
    25    59    58    1
    26    64    62   ar
    27   105   104    1
    28    70    71    1
    29    15    14    1
    30    14    13    1
    31   127   125   am
    32   117   116    1
    33    62    61    1
    34   104   101    1
    35   126   125    2
    36    71    72    1
    37    71    74    1
    38     9    10    1
    39    58    61    1
    40    58    57    1
    41   125   124    1
    42    85    84    2
    43    86    84   am
    44    72    73    2
    45    13    10    1
    46    10    11    1
    47    84    83    1
    48    74    75    1
    49   116   115    1
    50   101   100    1
    51   101   102    1
    52   123   122    2
    53   100    94   am
    54   115   112    1
    55   124   121    1
    56    76    75    2
    57   103   102    2
    58    75    77   am
    59    83    82    1
    60   122   121    1
    61   122   128   am
    62    11    12    2
    63    11    18   am
    64   141   140    1
    65    27    25   ar
    66    27    26   ar
    67   121   120    1
    68    94    93    1
    69    94    95    2
    70    90    89    2
    71   129   128    1
    72   129   130    1
    73   129   132    1
    74    93    96    1
    75    93    92    1
    76    25    23   ar
    77    96    98    1
    78    96    97    1
    79   112   111    1
    80   112   113    1
    81    26    24   ar
    82    18    19    1
    83    82    79    1
    84   114   113    2
    85   140   137    1
    86   130   131    2
    87   130   136   am
    88   132   133    1
    89   136   137    1
    90    89    92   am
    91    89    88    1
    92    23    24   ar
    93    23    22    1
    94   150   149    1
    95    97    99    1
    96   137   138    1
    97    35    33   ar
    98    19    22    1
    99    19    20    1
   100    79    80    1
   101    79    78    1
   102    87    80   am
   103    87    88    1
   104    80    81    2
   105   133   134    2
   106   133   135   am
   107    88    91    1
   108    21    20    2
   109    33    34   ar
   110    33    32    1
   111   149   148    1
   112    43    42   ar
   113   138   139    2
   114   138   142   am
   115    32    29    1
   116    44    42   ar
   117    42    41    1
   118   142   143    1
   119   147   148    1
   120   147   146    1
   121    48    47    2
   122    41    40    1
   123    29    28    1
   124    29    30    1
   125   146   143    1
   126   143   144    1
   127    31    30    2
   128    52    54   ar
   129    52    50   ar
   130    40    37    1
   131    54    55   ar
   132    47    46    1
   133    49    50    1
   134    49    46    1
   135    45    46    1
   136    45    38   am
   137   145   144    2
   138    50    51   ar
   139    37    38    1
   140    37    36    1
   141    55    56    1
   142    55    53   ar
   143    38    39    2
   144    51    53   ar
