@<TRIPOS>MOLECULE
tmp/2g7mD00.pdb
 139 132 0 0 0
SMALL
GASTEIGER

@<TRIPOS>ATOM
      1  N         -2.6200  -43.9110  -18.2010 N.3   112  ARG112     -0.1245
      2  CA        -2.7030  -45.3530  -18.0190 C.3   112  ARG112      0.1563
      3  C         -1.9580  -45.6330  -16.7330 C.2   112  ARG112      0.2260
      4  O         -0.7870  -45.2910  -16.6090 O.2   112  ARG112     -0.2867
      5  CB        -2.0390  -46.1300  -19.1580 C.3   112  ARG112      0.0307
      6  CG        -1.7700  -47.5810  -18.7620 C.3   112  ARG112      0.0489
      7  CD        -1.4560  -48.4880  -19.9330 C.3   112  ARG112      0.2205
      8  NE        -2.6840  -49.0030  -20.5360 N.pl3 112  ARG112     -0.0865
      9  CZ        -2.7640  -50.1150  -21.2620 C.cat 112  ARG112      0.5346
     10  NH1       -1.6820  -50.8490  -21.4790 N.pl3 112  ARG112      0.1354
     11  NH2       -3.9290  -50.4900  -21.7760 N.pl3 112  ARG112      0.1354
     12  N         -1.9800  -48.9360  -14.1890 N.3   114  PHE114     -0.1241
     13  CA        -2.4370  -50.2260  -13.7090 C.3   114  PHE114      0.1605
     14  C         -2.5570  -50.2570  -12.1940 C.2   114  PHE114      0.2264
     15  O         -1.8820  -49.5050  -11.4890 O.2   114  PHE114     -0.2867
     16  CB        -1.4560  -51.3180  -14.1410 C.3   114  PHE114      0.0534
     17  CG        -1.5330  -51.6740  -15.5920 C.ar  114  PHE114     -0.0203
     18  CD1       -2.2370  -50.8780  -16.4880 C.ar  114  PHE114     -0.0042
     19  CD2       -0.8860  -52.8090  -16.0680 C.ar  114  PHE114     -0.0042
     20  CE1       -2.2950  -51.2070  -17.8420 C.ar  114  PHE114     -0.0003
     21  CE2       -0.9350  -53.1510  -17.4190 C.ar  114  PHE114     -0.0003
     22  CZ        -1.6420  -52.3470  -18.3100 C.ar  114  PHE114     -0.0000
     23  N         -6.7920  -46.9640  -19.0110 N.3   144  GLU144     -0.1245
     24  CA        -6.8700  -48.1100  -18.1030 C.3   144  GLU144      0.1567
     25  C         -6.3590  -47.6790  -16.7510 C.2   144  GLU144      0.2260
     26  O         -5.1780  -47.3740  -16.5940 O.2   144  GLU144     -0.2867
     27  CB        -6.0620  -49.3370  -18.5450 C.3   144  GLU144      0.0388
     28  CG        -6.3350  -50.5170  -17.5930 C.3   144  GLU144      0.1160
     29  CD        -5.6510  -51.8160  -17.9840 C.2   144  GLU144      0.3649
     30  OE1       -5.5610  -52.1070  -19.1960 O.co2 144  GLU144     -0.2457
     31  OE2       -5.2210  -52.5620  -17.0730 O.co2 144  GLU144     -0.2457
     32  N        -11.4630  -49.7210  -17.6160 N.3   149  HIS149     -0.1241
     33  CA       -10.7510  -49.5250  -18.8710 C.3   149  HIS149      0.1621
     34  C        -11.8320  -49.2340  -19.9010 C.2   149  HIS149      0.2264
     35  O        -12.0160  -49.9780  -20.8680 O.2   149  HIS149     -0.2867
     36  CB        -9.9670  -50.7870  -19.2550 C.3   149  HIS149      0.0745
     37  CG        -8.9960  -50.5810  -20.3820 C.ar  149  HIS149      0.0817
     38  ND1       -8.8660  -49.3810  -21.0500 N.ar  149  HIS149     -0.2268
     39  CD2       -8.1140  -51.4300  -20.9640 C.ar  149  HIS149      0.1154
     40  CE1       -7.9470  -49.5000  -21.9930 C.ar  149  HIS149      0.1986
     41  NE2       -7.4750  -50.7330  -21.9630 N.ar  149  HIS149     -0.2212
     42  N        -11.5170  -49.4880  -23.7600 N.3   152  GLN152     -0.1245
     43  CA       -11.5450  -50.8620  -24.2450 C.3   152  GLN152      0.1566
     44  C        -12.9710  -51.3860  -24.3420 C.2   152  GLN152      0.2260
     45  O        -13.4090  -51.8380  -25.4000 O.2   152  GLN152     -0.2867
     46  CB       -10.7490  -51.7610  -23.3020 C.3   152  GLN152      0.0367
     47  CG       -10.7590  -53.2280  -23.6750 C.3   152  GLN152      0.0905
     48  CD       -10.1550  -53.4780  -25.0340 C.2   152  GLN152      0.2608
     49  OE1       -9.0760  -52.9840  -25.3440 O.2   152  GLN152     -0.2717
     50  NE2      -10.8460  -54.2560  -25.8520 N.am  152  GLN152     -0.0878
     51  N         -3.4600  -67.5460  -16.1250 N.3   178  HIS178     -0.1241
     52  CA        -2.3460  -66.6740  -16.4960 C.3   178  HIS178      0.1621
     53  C         -1.2620  -66.8310  -15.4290 C.2   178  HIS178      0.2264
     54  O         -1.5630  -66.9470  -14.2420 O.2   178  HIS178     -0.2867
     55  CB        -2.8160  -65.2160  -16.5800 C.3   178  HIS178      0.0745
     56  CG        -1.8510  -64.2970  -17.2670 C.ar  178  HIS178      0.0817
     57  ND1       -0.6140  -63.9880  -16.7450 N.ar  178  HIS178     -0.2268
     58  CD2       -1.9510  -63.6060  -18.4280 C.ar  178  HIS178      0.1154
     59  CE1        0.0050  -63.1460  -17.5530 C.ar  178  HIS178      0.1986
     60  NE2       -0.7850  -62.8980  -18.5820 N.ar  178  HIS178     -0.2212
     61  N          0.8660  -64.6550  -14.2790 N.3   180  ARG180     -0.1245
     62  CA         1.0870  -63.4890  -13.4340 C.3   180  ARG180      0.1563
     63  C         -0.2440  -62.9210  -12.9560 C.2   180  ARG180      0.2260
     64  O         -1.2760  -63.1100  -13.5930 O.2   180  ARG180     -0.2867
     65  CB         1.8640  -62.4170  -14.1970 C.3   180  ARG180      0.0307
     66  CG         3.3110  -62.7860  -14.5220 C.3   180  ARG180      0.0489
     67  CD         3.9740  -61.7260  -15.4120 C.3   180  ARG180      0.2205
     68  NE         3.0800  -60.5910  -15.6630 N.pl3 180  ARG180     -0.0865
     69  CZ         3.3000  -59.6270  -16.5580 C.cat 180  ARG180      0.5346
     70  NH1        4.4000  -59.6470  -17.3080 N.pl3 180  ARG180      0.1354
     71  NH2        2.4130  -58.6430  -16.7080 N.pl3 180  ARG180      0.1354
     72  N         -2.9750  -60.4420  -12.7670 N.3   182  LEU182     -0.1231
     73  CA        -3.4260  -59.3040  -13.5680 C.3   182  LEU182      0.1678
     74  C         -4.5690  -58.5340  -12.9030 C.2   182  LEU182      0.2434
     75  O         -5.3520  -59.0980  -12.1390 O.2   182  LEU182     -0.2733
     76  CB        -3.8650  -59.7850  -14.9570 C.3   182  LEU182      0.0284
     77  CG        -2.8760  -60.6630  -15.7340 C.3   182  LEU182      0.0019
     78  CD1       -3.4530  -60.9930  -17.0930 C.3   182  LEU182      0.0001
     79  CD2       -1.5450  -59.9470  -15.8850 C.3   182  LEU182      0.0001
     80  N         -4.6760  -57.2280  -13.1890 N.am  183  PRO183     -0.2729
     81  CA        -5.7270  -56.3740  -12.6190 C.3   183  PRO183      0.1401
     82  C         -7.0940  -56.8950  -13.0250 C.2   183  PRO183      0.2269
     83  O         -7.2000  -57.6730  -13.9730 O.2   183  PRO183     -0.2865
     84  CB        -5.4580  -55.0080  -13.2570 C.3   183  PRO183      0.0296
     85  CG        -4.0000  -55.0550  -13.6110 C.3   183  PRO183      0.0237
     86  CD        -3.8230  -56.4620  -14.1140 C.3   183  PRO183      0.0939
     87  N         -9.3200  -54.7870  -13.8660 N.3   185  ALA185     -0.1231
     88  CA        -9.7810  -53.6030  -14.5810 C.3   185  ALA185      0.1694
     89  C        -10.5700  -53.9180  -15.8460 C.2   185  ALA185      0.2591
     90  O        -11.6420  -53.3490  -16.0680 O.2   185  ALA185     -0.2718
     91  CB        -8.5930  -52.7070  -14.9170 C.3   185  ALA185      0.0304
     92  N        -10.0460  -54.8070  -16.6850 N.am  186  VAL186     -0.1980
     93  CA       -10.7470  -55.1620  -17.9150 C.3   186  VAL186      0.1595
     94  C        -12.0710  -55.8730  -17.6210 C.2   186  VAL186      0.2287
     95  O        -13.1120  -55.5010  -18.1670 O.2   186  VAL186     -0.2864
     96  CB        -9.8700  -56.0390  -18.8280 C.3   186  VAL186      0.0276
     97  CG1      -10.6950  -56.6120  -19.9620 C.3   186  VAL186      0.0022
     98  CG2       -8.7490  -55.2020  -19.3940 C.3   186  VAL186      0.0022
     99  N        -10.6640  -63.3610  -20.5250 N.3   238  LYS238     -0.1245
    100  CA        -9.7170  -62.4460  -19.8920 C.3   238  LYS238      0.1561
    101  C         -9.3500  -62.9510  -18.5030 C.2   238  LYS238      0.2260
    102  O        -10.2240  -63.3510  -17.7290 O.2   238  LYS238     -0.2867
    103  CB       -10.3220  -61.0450  -19.7640 C.3   238  LYS238      0.0271
    104  CG        -9.4100  -60.0560  -19.0600 C.3   238  LYS238      0.0035
    105  CD        -8.1690  -59.8040  -19.8900 C.3   238  LYS238      0.0206
    106  CE        -7.2460  -58.8290  -19.2020 C.3   238  LYS238      0.1093
    107  NZ        -6.1490  -59.7000  -18.6960 N.3   238  LYS238     -0.1314
    108  N         -9.2780  -58.4970  -25.4080 N.3   276  CYS276     -0.1221
    109  CA        -8.7120  -57.1590  -25.5230 C.3   276  CYS276      0.1808
    110  C         -7.2490  -57.1280  -25.9560 C.2   276  CYS276      0.2601
    111  O         -6.7660  -56.0910  -26.4190 O.2   276  CYS276     -0.2717
    112  CB        -8.8360  -56.4390  -24.1910 C.3   276  CYS276      0.0970
    113  SG        -7.9560  -57.3050  -22.8910 S.3   276  CYS276     -0.0800
    114  N         -6.5490  -58.2520  -25.8010 N.am  277  LEU277     -0.1966
    115  CA        -5.1290  -58.3350  -26.1560 C.3   277  LEU277      0.1713
    116  C         -4.3290  -57.4480  -25.1920 C.2   277  LEU277      0.2458
    117  O         -4.8330  -56.4270  -24.7130 O.2   277  LEU277     -0.2730
    118  CB        -4.9120  -57.8800  -27.6080 C.3   277  LEU277      0.0310
    119  CG        -5.2180  -58.8500  -28.7580 C.3   277  LEU277      0.0022
    120  CD1       -6.4820  -59.6360  -28.4910 C.3   277  LEU277      0.0001
    121  CD2       -5.3340  -58.0550  -30.0510 C.3   277  LEU277      0.0001
    122  N         -3.0740  -57.8230  -24.8870 N.am  278  PRO278     -0.2727
    123  CA        -2.2850  -58.9790  -25.3320 C.3   278  PRO278      0.1402
    124  C         -2.9030  -60.2890  -24.8880 C.2   278  PRO278      0.2269
    125  O         -3.6150  -60.3290  -23.8870 O.2   278  PRO278     -0.2865
    126  CB        -0.9360  -58.7730  -24.6460 C.3   278  PRO278      0.0296
    127  CG        -0.9260  -57.3180  -24.2800 C.3   278  PRO278      0.0237
    128  CD        -2.3320  -57.0660  -23.8680 C.3   278  PRO278      0.0939
    129  N        -10.6720  -49.9530  -31.3130 N.3   304  ARG304     -0.1245
    130  CA       -10.1020  -49.1280  -30.2590 C.3   304  ARG304      0.1563
    131  C         -9.8680  -47.7250  -30.8220 C.2   304  ARG304      0.2260
    132  O         -9.9360  -46.7400  -30.0890 O.2   304  ARG304     -0.2867
    133  CB        -8.7800  -49.7310  -29.7550 C.3   304  ARG304      0.0307
    134  CG        -8.9510  -50.9220  -28.8220 C.3   304  ARG304      0.0489
    135  CD        -9.6860  -50.4910  -27.5600 C.3   304  ARG304      0.2205
    136  NE        -8.9610  -49.4320  -26.8670 N.pl3 304  ARG304     -0.0865
    137  CZ        -7.9150  -49.6380  -26.0720 C.cat 304  ARG304      0.5346
    138  NH1       -7.4700  -50.8660  -25.8550 N.pl3 304  ARG304      0.1354
    139  NH2       -7.2990  -48.6110  -25.5040 N.pl3 304  ARG304      0.1354
@<TRIPOS>BOND
     1   129   130    1
     2   131   130    1
     3   131   132    2
     4   130   133    1
     5   121   119    1
     6   133   134    1
     7   134   135    1
     8   119   120    1
     9   119   118    1
    10   118   115    1
    11   135   136    1
    12   136   137    2
    13   111   110    2
    14   115   114    1
    15   115   116    1
    16   137   138    1
    17   137   139    1
    18   110   114   am
    19   110   109    1
    20    50    48   am
    21   109   108    1
    22   109   112    1
    23    45    44    2
    24    49    48    2
    25   123   124    1
    26   123   122    1
    27   123   126    1
    28   116   122   am
    29   116   117    2
    30    48    47    1
    31   124   125    2
    32   122   128    1
    33   126   127    1
    34    44    43    1
    35   127   128    1
    36    43    42    1
    37    43    46    1
    38   112   113    1
    39    47    46    1
    40    40    41   ar
    41    40    38   ar
    42    41    39   ar
    43    11     9    1
    44    10     9    1
    45     9     8    2
    46    38    37   ar
    47    39    37   ar
    48    35    34    2
    49     8     7    1
    50    99   100    1
    51    37    36    1
    52    97    96    1
    53     7     6    1
    54    34    33    1
    55   100   103    1
    56   100   101    1
    57   105   106    1
    58   105   104    1
    59   103   104    1
    60    98    96    1
    61    36    33    1
    62   106   107    1
    63    30    29   ar
    64     5     6    1
    65     5     2    1
    66    23    24    1
    67    33    32    1
    68    96    93    1
    69    60    58   ar
    70    60    59   ar
    71    27    24    1
    72    27    28    1
    73   101   102    2
    74    58    56   ar
    75    22    20   ar
    76    22    21   ar
    77     1     2    1
    78    95    94    2
    79    24    25    1
    80     2     3    1
    81    29    28    1
    82    29    31   ar
    83    93    94    1
    84    93    92    1
    85    20    18   ar
    86    59    57   ar
    87    21    19   ar
    88    70    69    1
    89    56    57   ar
    90    56    55    1
    91    78    77    1
    92    25    26    2
    93     3     4    2
    94    71    69    1
    95    92    89   am
    96    55    52    1
    97    69    68    2
    98    52    51    1
    99    52    53    1
   100    18    17   ar
   101    19    17   ar
   102    90    89    2
   103    79    77    1
   104    89    88    1
   105    77    76    1
   106    68    67    1
   107    17    16    1
   108    53    54    2
   109    67    66    1
   110    76    73    1
   111    91    88    1
   112    88    87    1
   113    66    65    1
   114    61    62    1
   115    65    62    1
   116    12    13    1
   117    16    13    1
   118    86    85    1
   119    86    80    1
   120    83    82    2
   121    13    14    1
   122    85    84    1
   123    64    63    2
   124    73    74    1
   125    73    72    1
   126    62    63    1
   127    84    81    1
   128    80    74   am
   129    80    81    1
   130    82    81    1
   131    74    75    2
   132    14    15    2
