@<TRIPOS>MOLECULE
tmp/2g7yA00.pdb
 150 146 0 0 0
SMALL
GASTEIGER

@<TRIPOS>ATOM
      1  N         42.5250   10.6520   28.8860 N.3    19  GLN19      -0.1245
      2  CA        43.0190   11.8700   28.2440 C.3    19  GLN19       0.1566
      3  C         44.2190   12.5510   28.9040 C.2    19  GLN19       0.2260
      4  O         44.8940   13.3660   28.2720 O.2    19  GLN19      -0.2867
      5  CB        41.8780   12.8900   28.0950 C.3    19  GLN19       0.0367
      6  CG        41.3700   13.4830   29.4010 C.3    19  GLN19       0.0905
      7  CD        40.2100   14.4530   29.1880 C.2    19  GLN19       0.2608
      8  OE1       40.3100   15.6380   29.5000 O.2    19  GLN19      -0.2717
      9  NE2       39.1090   13.9480   28.6530 N.am   19  GLN19      -0.0878
     10  N         43.1120   18.6370   27.4900 N.3    23  GLY23      -0.1225
     11  CA        41.6670   18.7490   27.3810 C.3    23  GLY23       0.1811
     12  C         41.1240   18.3020   26.0410 C.2    23  GLY23       0.2280
     13  O         40.5090   19.0860   25.3170 O.2    23  GLY23      -0.2866
     14  N         38.8300   15.8830   25.6320 N.3    25  CYS25      -0.1221
     15  CA        37.5790   15.1510   25.7820 C.3    25  CYS25       0.1808
     16  C         36.6430   15.3590   24.5840 C.2    25  CYS25       0.2601
     17  O         35.9180   14.4420   24.1950 O.2    25  CYS25      -0.2717
     18  CB        36.8760   15.5340   27.0970 C.3    25  CYS25       0.0970
     19  SG        36.6260   17.3000   27.3830 S.3    25  CYS25      -0.0800
     20  N         36.6720   16.5510   23.9920 N.am   26  TRP26      -0.1976
     21  CA        35.8210   16.8310   22.8400 C.3    26  TRP26       0.1640
     22  C         36.1630   15.8720   21.6980 C.2    26  TRP26       0.2290
     23  O         35.2760   15.3700   21.0110 O.2    26  TRP26      -0.2864
     24  CB        35.9970   18.2770   22.3660 C.3    26  TRP26       0.0576
     25  CG        37.4100   18.6410   22.0100 C.ar   26  TRP26       0.0006
     26  CD1       38.3950   19.0430   22.8700 C.ar   26  TRP26       0.0946
     27  CD2       38.0010   18.6240   20.7030 C.ar   26  TRP26       0.0152
     28  NE1       39.5590   19.2770   22.1820 N.ar   26  TRP26      -0.2442
     29  CE2       39.3480   19.0290   20.8500 C.ar   26  TRP26       0.0810
     30  CE3       37.5240   18.3050   19.4220 C.ar   26  TRP26       0.0012
     31  CZ2       40.2270   19.1270   19.7640 C.ar   26  TRP26       0.0191
     32  CZ3       38.3980   18.4010   18.3380 C.ar   26  TRP26       0.0001
     33  CH2       39.7390   18.8110   18.5200 C.ar   26  TRP26       0.0015
     34  N         37.8040   26.2070   14.6990 N.3    62  GLY62      -0.1210
     35  CA        37.5400   26.8450   15.9760 C.3    62  GLY62       0.1956
     36  C         37.9430   26.0140   17.1800 C.2    62  GLY62       0.2612
     37  O         37.4690   26.2610   18.2870 O.2    62  GLY62      -0.2717
     38  N         38.8120   25.0300   16.9750 N.am   63  ASN63      -0.1960
     39  CA        39.2570   24.1830   18.0780 C.3    63  ASN63       0.1819
     40  C         40.6500   24.5700   18.5530 C.2    63  ASN63       0.2621
     41  O         41.4400   25.1350   17.7980 O.2    63  ASN63      -0.2715
     42  CB        39.2340   22.7080   17.6760 C.3    63  ASN63       0.1195
     43  CG        37.8410   22.2270   17.3290 C.2    63  ASN63       0.2630
     44  OD1       36.8620   22.6330   17.9560 O.2    63  ASN63      -0.2716
     45  ND2       37.7450   21.3500   16.3330 N.am   63  ASN63      -0.0877
     46  N         40.9480   24.2480   19.8060 N.am   64  LYS64      -0.1977
     47  CA        42.2280   24.6010   20.3960 C.3    64  LYS64       0.1596
     48  C         42.9690   23.4220   21.0160 C.2    64  LYS64       0.2287
     49  O         43.5540   23.5430   22.0930 O.2    64  LYS64      -0.2864
     50  CB        42.0000   25.6960   21.4420 C.3    64  LYS64       0.0298
     51  CG        41.2140   26.8790   20.8870 C.3    64  LYS64       0.0038
     52  CD        40.9040   27.9280   21.9430 C.3    64  LYS64       0.0206
     53  CE        40.0820   29.0680   21.3420 C.3    64  LYS64       0.1093
     54  NZ        39.7790   30.1390   22.3350 N.3    64  LYS64      -0.1314
     55  N         44.5460   20.7270   23.0140 N.3    66  CYS66      -0.1221
     56  CA        44.4910   20.3870   24.4340 C.3    66  CYS66       0.1808
     57  C         43.7870   21.4490   25.2600 C.2    66  CYS66       0.2601
     58  O         43.5960   21.2820   26.4660 O.2    66  CYS66      -0.2717
     59  CB        45.8990   20.1630   24.9970 C.3    66  CYS66       0.0970
     60  SG        46.7020   18.6210   24.4530 S.3    66  CYS66      -0.0800
     61  N         43.3940   22.5380   24.6120 N.am   67  ASN67      -0.1960
     62  CA        42.7070   23.6110   25.3080 C.3    67  ASN67       0.1819
     63  C         41.2230   23.7110   24.9480 C.2    67  ASN67       0.2622
     64  O         40.6160   24.7650   25.1100 O.2    67  ASN67      -0.2715
     65  CB        43.4180   24.9450   25.0500 C.3    67  ASN67       0.1195
     66  CG        44.6920   25.0960   25.8760 C.2    67  ASN67       0.2630
     67  OD1       44.6420   25.1560   27.1060 O.2    67  ASN67      -0.2716
     68  ND2       45.8370   25.1530   25.2040 N.am   67  ASN67      -0.0877
     69  N         40.6460   22.6110   24.4620 N.am   68  GLY68      -0.1940
     70  CA        39.2280   22.5970   24.1310 C.3    68  GLY68       0.2014
     71  C         38.8370   22.5860   22.6630 C.2    68  GLY68       0.2639
     72  O         39.5800   23.0660   21.8160 O.2    68  GLY68      -0.2714
     73  N         37.6540   22.0470   22.3730 N.am   69  GLY69      -0.1939
     74  CA        37.1640   21.9830   21.0040 C.3    69  GLY69       0.2014
     75  C         35.6890   21.6110   20.9150 C.2    69  GLY69       0.2639
     76  O         35.0500   21.3430   21.9360 O.2    69  GLY69      -0.2714
     77  N         35.1510   21.5980   19.6950 N.am   70  PHE70      -0.1959
     78  CA        33.7480   21.2570   19.4590 C.3    70  PHE70       0.1771
     79  C         33.6230   19.8870   18.7900 C.2    70  PHE70       0.2619
     80  O         34.4250   19.5390   17.9180 O.2    70  PHE70      -0.2715
     81  CB        33.0720   22.2900   18.5410 C.3    70  PHE70       0.0574
     82  CG        33.0590   23.6900   19.0860 C.ar   70  PHE70      -0.0200
     83  CD1       34.1300   24.5490   18.8650 C.ar   70  PHE70      -0.0042
     84  CD2       31.9670   24.1530   19.8170 C.ar   70  PHE70      -0.0042
     85  CE1       34.1170   25.8500   19.3610 C.ar   70  PHE70      -0.0003
     86  CE2       31.9420   25.4550   20.3200 C.ar   70  PHE70      -0.0003
     87  CZ        33.0210   26.3060   20.0910 C.ar   70  PHE70      -0.0000
     88  N         32.6100   19.1210   19.1840 N.am   71  MET71      -0.1977
     89  CA        32.3930   17.8080   18.5940 C.3    71  MET71       0.1605
     90  C         31.8660   17.9520   17.1620 C.2    71  MET71       0.2287
     91  O         32.2440   17.1890   16.2750 O.2    71  MET71      -0.2864
     92  CB        31.4010   16.9860   19.4320 C.3    71  MET71       0.0413
     93  CG        31.9370   16.4910   20.7790 C.3    71  MET71       0.0598
     94  SD        31.8930   17.7310   22.0980 S.3    71  MET71      -0.1393
     95  CE        30.1990   17.5950   22.6190 C.3    71  MET71       0.0692
     96  N         27.7380   17.5320   25.6300 N.3   137  GLY137     -0.1225
     97  CA        28.5920   18.2690   26.5360 C.3   137  GLY137      0.1811
     98  C         27.8820   18.2930   27.8770 C.2   137  GLY137      0.2280
     99  O         26.6520   18.2780   27.9220 O.2   137  GLY137     -0.2866
    100  N         32.2470   20.6090   36.2030 N.3   141  ARG141     -0.1245
    101  CA        33.1100   21.4430   37.0400 C.3   141  ARG141      0.1563
    102  C         32.9530   21.2320   38.5470 C.2   141  ARG141      0.2260
    103  O         33.7930   21.6770   39.3220 O.2   141  ARG141     -0.2867
    104  CB        32.8440   22.9260   36.7670 C.3   141  ARG141      0.0307
    105  CG        32.4960   23.3060   35.3390 C.3   141  ARG141      0.0489
    106  CD        31.8460   24.6930   35.3340 C.3   141  ARG141      0.2205
    107  NE        31.3190   25.0850   34.0280 N.pl3 141  ARG141     -0.0865
    108  CZ        32.0090   25.7560   33.1120 C.cat 141  ARG141      0.5346
    109  NH1       33.2620   26.1200   33.3540 N.pl3 141  ARG141      0.1354
    110  NH2       31.4430   26.0660   31.9530 N.pl3 141  ARG141      0.1354
    111  N         27.8390   23.8780   29.7230 N.3   162  VAL162     -0.1231
    112  CA        28.6960   22.7230   29.4820 C.3   162  VAL162      0.1692
    113  C         30.1580   23.0640   29.2370 C.2   162  VAL162      0.2592
    114  O         30.4790   24.0990   28.6460 O.2   162  VAL162     -0.2718
    115  CB        28.1600   21.8910   28.3040 C.3   162  VAL162      0.0266
    116  CG1       26.7210   21.4920   28.5860 C.3   162  VAL162      0.0020
    117  CG2       28.2460   22.6900   27.0090 C.3   162  VAL162      0.0020
    118  N         31.0440   22.1790   29.6880 N.am  163  ASN163     -0.1960
    119  CA        32.4750   22.3990   29.5330 C.3   163  ASN163      0.1819
    120  C         33.2540   21.1010   29.3480 C.2   163  ASN163      0.2621
    121  O         34.4790   21.1220   29.2840 O.2   163  ASN163     -0.2715
    122  CB        33.0110   23.1310   30.7670 C.3   163  ASN163      0.1195
    123  CG        33.1650   22.2120   31.9720 C.2   163  ASN163      0.2630
    124  OD1       32.3430   21.3240   32.2050 O.2   163  ASN163     -0.2716
    125  ND2       34.2200   22.4310   32.7510 N.am  163  ASN163     -0.0877
    126  N         32.5490   19.9770   29.2480 N.am  164  HIS164     -0.1959
    127  CA        33.2080   18.6800   29.1180 C.3   164  HIS164      0.1787
    128  C         32.5370   17.7660   28.0900 C.2   164  HIS164      0.2620
    129  O         31.3690   17.4250   28.2240 O.2   164  HIS164     -0.2715
    130  CB        33.2300   17.9970   30.4890 C.3   164  HIS164      0.0785
    131  CG        34.0460   16.7440   30.5320 C.ar  164  HIS164      0.0821
    132  ND1       35.3620   16.6990   30.1230 N.ar  164  HIS164     -0.2267
    133  CD2       33.7430   15.4980   30.9650 C.ar  164  HIS164      0.1154
    134  CE1       35.8350   15.4790   30.3050 C.ar  164  HIS164      0.1986
    135  NE2       34.8730   14.7310   30.8150 N.ar  164  HIS164     -0.2212
    136  N         33.2890   17.3560   27.0760 N.am  165  GLY165     -0.1954
    137  CA        32.7240   16.4990   26.0480 C.3   165  GLY165      0.1869
    138  C         32.6740   15.0320   26.4290 C.2   165  GLY165      0.2309
    139  O         33.6790   14.4620   26.8380 O.2   165  GLY165     -0.2863
    140  N         23.6650   20.3140   24.0070 N.3   211  PHE211     -0.1241
    141  CA        24.2470   20.2730   22.6680 C.3   211  PHE211      0.1605
    142  C         24.6210   18.8700   22.1910 C.2   211  PHE211      0.2264
    143  O         25.7990   18.5190   22.1250 O.2   211  PHE211     -0.2867
    144  CB        25.4810   21.1820   22.6050 C.3   211  PHE211      0.0534
    145  CG        25.1990   22.6200   22.9640 C.ar  211  PHE211     -0.0203
    146  CD1       25.3870   23.0780   24.2640 C.ar  211  PHE211     -0.0042
    147  CD2       24.7390   23.5130   22.0000 C.ar  211  PHE211     -0.0042
    148  CE1       25.1240   24.4050   24.6020 C.ar  211  PHE211     -0.0003
    149  CE2       24.4690   24.8460   22.3240 C.ar  211  PHE211     -0.0003
    150  CZ        24.6620   25.2940   23.6260 C.ar  211  PHE211     -0.0000
@<TRIPOS>BOND
     1    34    35    1
     2    35    36    1
     3    91    90    2
     4    45    43   am
     5    38    36   am
     6    38    39    1
     7    90    89    1
     8    36    37    2
     9    43    42    1
    10    43    44    2
    11    42    39    1
    12    41    40    2
    13    80    79    2
    14    39    40    1
    15    32    33   ar
    16    32    30   ar
    17    33    31   ar
    18    81    82    1
    19    81    78    1
    20    40    46   am
    21    89    88    1
    22    89    92    1
    23    79    88   am
    24    79    78    1
    25    83    82   ar
    26    83    85   ar
    27    82    84   ar
    28    85    87   ar
    29    30    27   ar
    30    92    93    1
    31    78    77    1
    32    77    75   am
    33    31    29   ar
    34    46    47    1
    35    84    86   ar
    36    87    86   ar
    37    47    48    1
    38    47    50    1
    39    27    29   ar
    40    27    25   ar
    41    93    94    1
    42    29    28   ar
    43    51    50    1
    44    51    52    1
    45    75    74    1
    46    75    76    2
    47    74    73    1
    48    23    22    2
    49    48    49    2
    50    53    52    1
    51    53    54    1
    52    22    21    1
    53    72    71    2
    54   147   149   ar
    55   147   145   ar
    56    25    24    1
    57    25    26   ar
    58    94    95    1
    59   143   142    2
    60    28    26   ar
    61   142   141    1
    62   149   150   ar
    63    24    21    1
    64    73    71   am
    65   144   141    1
    66   144   145    1
    67    71    70    1
    68   141   140    1
    69    21    20    1
    70   145   146   ar
    71    55    56    1
    72   150   148   ar
    73    20    16   am
    74    70    69    1
    75    17    16    2
    76   146   148   ar
    77    56    59    1
    78    56    57    1
    79    60    59    1
    80    69    63   am
    81    16    15    1
    82    61    57   am
    83    61    62    1
    84    63    64    2
    85    63    62    1
    86    65    62    1
    87    65    66    1
    88    68    66   am
    89    57    58    2
    90    13    12    2
    91    96    97    1
    92    14    15    1
    93    15    18    1
    94    66    67    2
    95    12    11    1
    96   137   138    1
    97   137   136    1
    98   138   139    2
    99    97    98    1
   100   117   115    1
   101   136   128   am
   102    18    19    1
   103    11    10    1
   104    98    99    2
   105   128   129    2
   106   128   127    1
   107     5     2    1
   108     5     6    1
   109     2     1    1
   110     2     3    1
   111     4     3    2
   112   115   116    1
   113   115   112    1
   114   114   113    2
   115     9     7   am
   116   127   126    1
   117   127   130    1
   118     7     6    1
   119     7     8    2
   120   113   112    1
   121   113   118   am
   122   126   120   am
   123   121   120    2
   124   120   119    1
   125   112   111    1
   126   119   118    1
   127   119   122    1
   128   132   134   ar
   129   132   131   ar
   130   134   135   ar
   131   130   131    1
   132   131   133   ar
   133   122   123    1
   134   135   133   ar
   135   110   108    1
   136   123   124    2
   137   123   125   am
   138   108   109    1
   139   108   107    2
   140   107   106    1
   141   106   105    1
   142   105   104    1
   143   100   101    1
   144   104   101    1
   145   101   102    1
   146   102   103    2
