@<TRIPOS>MOLECULE
tmp/2g7zB00.pdb
 206 193 0 0 0
SMALL
GASTEIGER

@<TRIPOS>ATOM
      1  N         48.0760   46.3630   80.5640 N.3    29  LEU29      -0.1245
      2  CA        47.8610   47.3620   81.5970 C.3    29  LEU29       0.1561
      3  C         46.3700   47.3650   81.9640 C.2    29  LEU29       0.2260
      4  O         45.5600   46.6510   81.3280 O.2    29  LEU29      -0.2867
      5  CB        48.3420   48.7360   81.1190 C.3    29  LEU29       0.0270
      6  CG        49.8620   49.0210   81.1160 C.3    29  LEU29       0.0019
      7  CD1       50.5920   48.3470   79.9390 C.3    29  LEU29       0.0001
      8  CD2       50.0760   50.5320   81.0720 C.3    29  LEU29       0.0001
      9  N         44.6690   55.0030   84.4320 N.3    60  THR60      -0.1203
     10  CA        45.4560   53.8200   84.0370 C.3    60  THR60       0.1994
     11  C         46.3550   53.3020   85.1550 C.2    60  THR60       0.2619
     12  O         46.7360   54.0480   86.0610 O.2    60  THR60      -0.2717
     13  CB        46.3790   54.1200   82.8300 C.3    60  THR60       0.1784
     14  OG1       47.3070   55.1400   83.2000 O.3    60  THR60      -0.2211
     15  CG2       45.5530   54.5820   81.6180 C.3    60  THR60       0.0376
     16  N         46.7130   52.0330   85.0590 N.am   61  SER61      -0.1937
     17  CA        47.6630   51.4060   85.9790 C.3    61  SER61       0.2055
     18  C         48.5770   50.5020   85.1830 C.2    61  SER61       0.2642
     19  O         48.1070   49.8290   84.2760 O.2    61  SER61      -0.2714
     20  CB        46.9320   50.5360   86.9990 C.3    61  SER61       0.2130
     21  OG        46.3180   51.3620   87.9560 O.3    61  SER61      -0.2179
     22  N         49.8620   50.4700   85.5520 N.am   62  GLN62      -0.1976
     23  CA        50.8220   49.5150   84.9840 C.3    62  GLN62       0.1601
     24  C         50.4020   48.0870   85.3640 C.2    62  GLN62       0.2287
     25  O         49.6340   47.9190   86.3230 O.2    62  GLN62      -0.2864
     26  CB        52.2240   49.8090   85.5220 C.3    62  GLN62       0.0394
     27  CG        52.3970   49.4750   87.0160 C.3    62  GLN62       0.0908
     28  CD        53.6380   50.0720   87.6200 C.2    62  GLN62       0.2608
     29  OE1       54.2980   49.4350   88.4500 O.2    62  GLN62      -0.2717
     30  NE2       53.9540   51.2960   87.2460 N.am   62  GLN62      -0.0878
     31  N         57.0410   50.2200   76.9120 N.3    88  LEU88      -0.1245
     32  CA        56.9160   51.6660   76.6800 C.3    88  LEU88       0.1561
     33  C         57.9190   52.3850   77.5750 C.2    88  LEU88       0.2260
     34  O         58.3740   51.8130   78.5680 O.2    88  LEU88      -0.2867
     35  CB        55.4790   52.1810   76.8790 C.3    88  LEU88       0.0270
     36  CG        54.8900   52.4640   78.2680 C.3    88  LEU88       0.0019
     37  CD1       53.6050   53.2920   78.1270 C.3    88  LEU88       0.0001
     38  CD2       54.6190   51.1430   78.9850 C.3    88  LEU88       0.0001
     39  N         57.0970   57.4130   80.5690 N.3    92  LEU92      -0.1231
     40  CA        55.6270   57.3880   80.4930 C.3    92  LEU92       0.1693
     41  C         54.9780   56.5290   81.5780 C.2    92  LEU92       0.2593
     42  O         53.8830   56.8460   82.0760 O.2    92  LEU92      -0.2718
     43  CB        55.1970   56.8830   79.0970 C.3    92  LEU92       0.0284
     44  CG        55.7260   57.7080   77.9010 C.3    92  LEU92       0.0019
     45  CD1       55.1780   57.1520   76.5780 C.3    92  LEU92       0.0001
     46  CD2       55.4090   59.2070   78.0360 C.3    92  LEU92       0.0001
     47  N         55.6390   55.4300   81.9330 N.am   93  SER93      -0.1938
     48  CA        55.0280   54.4100   82.8050 C.3    93  SER93       0.2055
     49  C         56.0900   53.6180   83.5720 C.2    93  SER93       0.2643
     50  O         57.2180   53.4210   83.0790 O.2    93  SER93      -0.2714
     51  CB        54.1940   53.4520   81.9430 C.3    93  SER93       0.2130
     52  OG        53.4470   52.5480   82.7330 O.3    93  SER93      -0.2179
     53  N         55.7240   53.1240   84.7540 N.am   94  GLY94      -0.1954
     54  CA        56.6060   52.2370   85.5310 C.3    94  GLY94       0.1869
     55  C         56.4470   50.7790   85.0920 C.2    94  GLY94       0.2309
     56  O         56.9850   49.8750   85.7320 O.2    94  GLY94      -0.2863
     57  N         56.2490   53.8910   72.4090 N.3   118  THR118     -0.1203
     58  CA        55.0320   53.1850   72.7600 C.3   118  THR118      0.1994
     59  C         54.3020   53.0510   71.4170 C.2   118  THR118      0.2617
     60  O         54.8680   53.4150   70.3820 O.2   118  THR118     -0.2717
     61  CB        54.1600   53.9530   73.8320 C.3   118  THR118      0.1784
     62  OG1       52.9830   53.1850   74.1480 O.3   118  THR118     -0.2211
     63  CG2       53.7100   55.3330   73.3310 C.3   118  THR118      0.0376
     64  N         53.0780   52.5220   71.4300 N.am  119  ASP119     -0.1973
     65  CA        52.1670   52.5810   70.2630 C.3   119  ASP119      0.1709
     66  C         52.8310   51.8850   69.0490 C.2   119  ASP119      0.2293
     67  O         53.4290   50.8090   69.2120 O.2   119  ASP119     -0.2864
     68  CB        51.7400   54.0530   70.0240 C.3   119  ASP119      0.1436
     69  CG        50.5890   54.2100   69.0300 C.2   119  ASP119      0.3671
     70  OD1       49.4010   54.1330   69.4340 O.co2 119  ASP119     -0.2456
     71  OD2       50.8750   54.4440   67.8460 O.co2 119  ASP119     -0.2456
     72  N         59.2120   59.8220   67.0920 N.3   153  LEU153     -0.1245
     73  CA        57.7870   59.8930   67.4150 C.3   153  LEU153      0.1561
     74  C         57.3820   61.3380   67.7080 C.2   153  LEU153      0.2260
     75  O         57.9580   61.9870   68.5930 O.2   153  LEU153     -0.2867
     76  CB        57.4420   58.9740   68.6080 C.3   153  LEU153      0.0270
     77  CG        55.9520   58.8100   69.0130 C.3   153  LEU153      0.0019
     78  CD1       55.7030   57.4800   69.7810 C.3   153  LEU153      0.0001
     79  CD2       55.3800   60.0230   69.7980 C.3   153  LEU153      0.0001
     80  N         53.8810   63.6470   68.4950 N.3   155  ILE155     -0.1245
     81  CA        52.5150   63.4970   68.9470 C.3   155  ILE155      0.1561
     82  C         51.8730   64.8780   68.9710 C.2   155  ILE155      0.2260
     83  O         52.4680   65.8280   69.4790 O.2   155  ILE155     -0.2867
     84  CB        52.4020   62.7830   70.3430 C.3   155  ILE155      0.0252
     85  CG1       50.9170   62.7380   70.7700 C.3   155  ILE155      0.0019
     86  CG2       53.3770   63.4140   71.3800 C.3   155  ILE155      0.0019
     87  CD1       50.5820   62.8830   72.2320 C.3   155  ILE155      0.0001
     88  N         46.6730   65.2620   79.6910 N.3   163  LEU163     -0.1245
     89  CA        48.0650   65.3120   80.1460 C.3   163  LEU163      0.1561
     90  C         48.2000   65.8720   81.5640 C.2   163  LEU163      0.2260
     91  O         48.9650   65.3320   82.3820 O.2   163  LEU163     -0.2867
     92  CB        48.9490   66.0750   79.1570 C.3   163  LEU163      0.0270
     93  CG        49.2200   65.3150   77.8480 C.3   163  LEU163      0.0019
     94  CD1       49.6750   66.2800   76.7710 C.3   163  LEU163      0.0001
     95  CD2       50.2420   64.1690   78.0670 C.3   163  LEU163      0.0001
     96  N         51.0900   63.2940   83.0350 N.3   168  ARG168     -0.1245
     97  CA        52.1860   63.2460   82.0490 C.3   168  ARG168      0.1563
     98  C         52.5690   64.6090   81.4650 C.2   168  ARG168      0.2260
     99  O         53.5350   64.7050   80.7090 O.2   168  ARG168     -0.2867
    100  CB        51.9530   62.1770   80.9730 C.3   168  ARG168      0.0307
    101  CG        52.4240   60.7570   81.4050 C.3   168  ARG168      0.0489
    102  CD        51.5980   60.2380   82.6140 C.3   168  ARG168      0.2205
    103  NE        51.9970   58.9120   83.0540 N.pl3 168  ARG168     -0.0865
    104  CZ        51.5610   58.3330   84.1700 C.cat 168  ARG168      0.5346
    105  NH1       50.7050   58.9700   84.9590 N.pl3 168  ARG168      0.1354
    106  NH2       51.9990   57.1210   84.5120 N.pl3 168  ARG168      0.1354
    107  N         58.8000   62.9010   71.2670 N.3   182  LEU182     -0.1245
    108  CA        59.1280   62.0240   72.3870 C.3   182  LEU182      0.1561
    109  C         60.6020   61.7020   72.2480 C.2   182  LEU182      0.2260
    110  O         61.0080   60.9050   71.3870 O.2   182  LEU182     -0.2867
    111  CB        58.3310   60.7150   72.3620 C.3   182  LEU182      0.0270
    112  CG        57.8000   60.0460   73.6500 C.3   182  LEU182      0.0019
    113  CD1       57.7180   58.5220   73.4830 C.3   182  LEU182      0.0001
    114  CD2       58.4740   60.4210   74.9840 C.3   182  LEU182      0.0001
    115  N         58.5900   64.9630   76.6930 N.3   187  LEU187     -0.1245
    116  CA        57.8090   65.4060   75.5430 C.3   187  LEU187      0.1561
    117  C         58.2160   66.8320   75.1590 C.2   187  LEU187      0.2260
    118  O         57.8070   67.8150   75.7790 O.2   187  LEU187     -0.2867
    119  CB        56.3130   65.2800   75.8160 C.3   187  LEU187      0.0270
    120  CG        55.7800   63.8490   75.7630 C.3   187  LEU187      0.0019
    121  CD1       54.4570   63.6880   76.5170 C.3   187  LEU187      0.0001
    122  CD2       55.6360   63.4170   74.3170 C.3   187  LEU187      0.0001
    123  N         48.8910   56.9730   64.3690 N.3   221  SER221     -0.1202
    124  CA        47.8050   56.5290   65.2590 C.3   221  SER221      0.2020
    125  C         47.0070   57.7240   65.6980 C.2   221  SER221      0.2619
    126  O         47.4810   58.8500   65.5930 O.2   221  SER221     -0.2717
    127  CB        48.3520   55.8220   66.5060 C.3   221  SER221      0.2103
    128  OG        48.9400   54.6020   66.1480 O.3   221  SER221     -0.2182
    129  N         45.7900   57.4920   66.1780 N.am  222  TYR222     -0.1961
    130  CA        44.9090   58.6100   66.5090 C.3   222  TYR222      0.1771
    131  C         44.0350   58.2500   67.6940 C.2   222  TYR222      0.2619
    132  O         43.7660   57.0740   67.9540 O.2   222  TYR222     -0.2715
    133  CB        44.0720   59.0580   65.2900 C.3   222  TYR222      0.0574
    134  CG        43.1140   57.9820   64.7930 C.ar  222  TYR222     -0.0198
    135  CD1       43.5250   57.0370   63.8340 C.ar  222  TYR222     -0.0009
    136  CD2       41.8390   57.8530   65.3410 C.ar  222  TYR222     -0.0009
    137  CE1       42.6740   56.0290   63.4080 C.ar  222  TYR222      0.0417
    138  CE2       40.9740   56.8370   64.9240 C.ar  222  TYR222      0.0417
    139  CZ        41.3950   55.9360   63.9710 C.ar  222  TYR222      0.1957
    140  OH        40.5490   54.9380   63.5630 O.3   222  TYR222     -0.2866
    141  N         43.6510   59.2770   68.4330 N.am  223  ALA223     -0.1977
    142  CA        42.6400   59.1830   69.4570 C.3   223  ALA223      0.1597
    143  C         41.5000   60.1230   69.0650 C.2   223  ALA223      0.2287
    144  O         41.7080   61.3270   68.8270 O.2   223  ALA223     -0.2864
    145  CB        43.2320   59.5690   70.8260 C.3   223  ALA223      0.0319
    146  N         44.7090   54.3880   68.4270 N.3   249  THR249     -0.1218
    147  CA        45.5610   54.0750   69.5660 C.3   249  THR249      0.1862
    148  C         44.7720   53.3780   70.7030 C.2   249  THR249      0.2287
    149  O         43.5350   53.4220   70.7180 O.2   249  THR249     -0.2866
    150  CB        46.3040   55.3500   70.0650 C.3   249  THR249      0.1770
    151  OG1       47.3750   54.9610   70.9240 O.3   249  THR249     -0.2211
    152  CG2       45.3610   56.2970   70.8180 C.3   249  THR249      0.0375
    153  N         45.0360   53.0440   76.9440 N.3   252  ILE252     -0.1231
    154  CA        46.0610   53.5790   77.8350 C.3   252  ILE252      0.1692
    155  C         46.5540   54.9380   77.3120 C.2   252  ILE252      0.2591
    156  O         46.6500   55.8850   78.0650 O.2   252  ILE252     -0.2718
    157  CB        47.2510   52.5880   78.0110 C.3   252  ILE252      0.0266
    158  CG1       46.7720   51.2480   78.5940 C.3   252  ILE252      0.0019
    159  CG2       48.3820   53.2360   78.8510 C.3   252  ILE252      0.0020
    160  CD1       46.1690   51.3280   79.9980 C.3   252  ILE252      0.0001
    161  N         46.8160   55.0250   76.0130 N.am  253  ILE253     -0.1980
    162  CA        47.2540   56.2890   75.4160 C.3   253  ILE253      0.1595
    163  C         46.1000   57.3190   75.3520 C.2   253  ILE253      0.2287
    164  O         46.2980   58.4840   75.6910 O.2   253  ILE253     -0.2864
    165  CB        47.9000   56.0350   73.9960 C.3   253  ILE253      0.0276
    166  CG1       49.1340   55.1040   74.0530 C.3   253  ILE253      0.0022
    167  CG2       48.1680   57.3390   73.2470 C.3   253  ILE253      0.0022
    168  CD1       50.2210   55.4100   75.1040 C.3   253  ILE253      0.0001
    169  N         45.4430   59.4210   78.3440 N.3   256  HIS256     -0.1226
    170  CA        46.4370   60.4250   78.6710 C.3   256  HIS256      0.1752
    171  C         46.5420   61.5450   77.6460 C.2   256  HIS256      0.2596
    172  O         46.9790   62.6340   78.0050 O.2   256  HIS256     -0.2718
    173  CB        47.7990   59.7720   78.9560 C.3   256  HIS256      0.0759
    174  CG        47.8350   59.0510   80.2630 C.ar  256  HIS256      0.0818
    175  ND1       48.1880   59.6720   81.4440 N.ar  256  HIS256     -0.2268
    176  CD2       47.5360   57.7690   80.5850 C.ar  256  HIS256      0.1154
    177  CE1       48.0970   58.8070   82.4360 C.ar  256  HIS256      0.1986
    178  NE2       47.7190   57.6400   81.9420 N.ar  256  HIS256     -0.2212
    179  N         46.0910   61.3050   76.4100 N.am  257  THR257     -0.1953
    180  CA        46.1090   62.3350   75.3640 C.3   257  THR257      0.1897
    181  C         44.7780   63.0830   75.1970 C.2   257  THR257      0.2313
    182  O         44.7660   64.2840   74.8920 O.2   257  THR257     -0.2863
    183  CB        46.5400   61.7990   73.9600 C.3   257  THR257      0.1794
    184  OG1       45.5160   60.9420   73.4180 O.3   257  THR257     -0.2208
    185  CG2       47.8890   61.0520   74.0390 C.3   257  THR257      0.0378
    186  N         43.9040   63.7160   69.1980 N.3   261  ALA261     -0.1231
    187  CA        45.3510   63.5300   69.2400 C.3   261  ALA261      0.1694
    188  C         45.7660   62.5500   68.1450 C.2   261  ALA261      0.2592
    189  O         44.9450   61.7620   67.6410 O.2   261  ALA261     -0.2718
    190  CB        45.7820   63.0550   70.6130 C.3   261  ALA261      0.0304
    191  N         47.0340   62.6150   67.7610 N.am  262  PHE262     -0.1962
    192  CA        47.5910   61.7040   66.7700 C.3   262  PHE262      0.1771
    193  C         49.0690   61.5600   67.0720 C.2   262  PHE262      0.2619
    194  O         49.6530   62.3600   67.8180 O.2   262  PHE262     -0.2715
    195  CB        47.4230   62.2680   65.3510 C.3   262  PHE262      0.0574
    196  CG        48.2700   63.4910   65.0940 C.ar  262  PHE262     -0.0200
    197  CD1       47.7740   64.7610   65.3810 C.ar  262  PHE262     -0.0042
    198  CD2       49.5780   63.3640   64.6190 C.ar  262  PHE262     -0.0042
    199  CE1       48.5470   65.8940   65.1860 C.ar  262  PHE262     -0.0003
    200  CE2       50.3790   64.4960   64.4210 C.ar  262  PHE262     -0.0003
    201  CZ        49.8490   65.7750   64.6990 C.ar  262  PHE262     -0.0000
    202  N         49.6830   60.5430   66.4820 N.am  263  ALA263     -0.1977
    203  CA        51.1410   60.4930   66.4320 C.3   263  ALA263      0.1597
    204  C         51.6160   60.1230   65.0410 C.2   263  ALA263      0.2287
    205  O         50.9500   59.3820   64.3280 O.2   263  ALA263     -0.2864
    206  CB        51.7090   59.5520   67.4840 C.3   263  ALA263      0.0319
@<TRIPOS>BOND
     1   137   135   ar
     2   137   139   ar
     3   140   139    1
     4   135   134   ar
     5   139   138   ar
     6   205   204    2
     7   123   124    1
     8   200   198   ar
     9   200   201   ar
    10   198   196   ar
    11   201   199   ar
    12   134   133    1
    13   134   136   ar
    14   138   136   ar
    15   204   203    1
    16   196   195    1
    17   196   197   ar
    18   199   197   ar
    19   124   125    1
    20   124   127    1
    21   133   130    1
    22   195   192    1
    23   126   125    2
    24   125   129   am
    25   128   127    1
    26   129   130    1
    27   203   202    1
    28   203   206    1
    29   202   193   am
    30   130   131    1
    31   192   193    1
    32   192   191    1
    33   193   194    2
    34    72    73    1
    35    73    74    1
    36    73    76    1
    37   189   188    2
    38   131   132    2
    39   131   141   am
    40    74    75    2
    41   191   188   am
    42    71    69   ar
    43   188   187    1
    44   146   147    1
    45   141   142    1
    46    80    81    1
    47    76    77    1
    48   144   143    2
    49    81    82    1
    50    81    84    1
    51    82    83    2
    52    77    78    1
    53    77    79    1
    54    69    70   ar
    55    69    68    1
    56    66    67    2
    57    66    65    1
    58   143   142    1
    59   186   187    1
    60   187   190    1
    61   142   145    1
    62   147   150    1
    63   147   148    1
    64    68    65    1
    65   150   152    1
    66   150   151    1
    67    65    64    1
    68    84    85    1
    69    84    86    1
    70    60    59    2
    71   148   149    2
    72    85    87    1
    73   107   108    1
    74   110   109    2
    75    59    64   am
    76    59    58    1
    77   109   108    1
    78   111   108    1
    79   111   112    1
    80    57    58    1
    81    58    61    1
    82   167   165    1
    83    63    61    1
    84   184   183    1
    85   113   112    1
    86   112   114    1
    87    61    62    1
    88   183   185    1
    89   183   180    1
    90   165   166    1
    91   165   162    1
    92   166   168    1
    93   122   120    1
    94   182   181    2
    95   117   116    1
    96   117   118    2
    97   181   180    1
    98   163   162    1
    99   163   164    2
   100   180   179    1
   101   162   161    1
   102   116   119    1
   103   116   115    1
   104   120   119    1
   105   120   121    1
   106   161   155   am
   107   179   171   am
   108    45    44    1
   109    32    35    1
   110    32    31    1
   111    32    33    1
   112    94    93    1
   113    35    36    1
   114   153   154    1
   115   155   154    1
   116   155   156    2
   117    33    34    2
   118   171   172    2
   119   171   170    1
   120   154   157    1
   121    93    95    1
   122    93    92    1
   123    44    46    1
   124    44    43    1
   125   157   158    1
   126   157   159    1
   127    37    36    1
   128    36    38    1
   129   169   170    1
   130   158   160    1
   131   170   173    1
   132   173   174    1
   133    43    40    1
   134    92    89    1
   135    88    89    1
   136     7     6    1
   137    89    90    1
   138   174   176   ar
   139   174   175   ar
   140    40    39    1
   141    40    41    1
   142     1     2    1
   143   176   178   ar
   144    99    98    2
   145   100   101    1
   146   100    97    1
   147     8     6    1
   148     6     5    1
   149     5     2    1
   150     4     3    2
   151   101   102    1
   152   175   177   ar
   153    98    97    1
   154    90    91    2
   155    41    47   am
   156    41    42    2
   157     2     3    1
   158    15    13    1
   159    47    48    1
   160   178   177   ar
   161    51    52    1
   162    51    48    1
   163    97    96    1
   164   102   103    1
   165    48    49    1
   166    13    14    1
   167    13    10    1
   168   103   104    2
   169    50    49    2
   170    49    53   am
   171    10     9    1
   172    10    11    1
   173   104   106    1
   174   104   105    1
   175    19    18    2
   176    53    54    1
   177    23    24    1
   178    23    26    1
   179    23    22    1
   180    16    11   am
   181    16    17    1
   182    55    54    1
   183    55    56    2
   184    11    12    2
   185    18    22   am
   186    18    17    1
   187    24    25    2
   188    26    27    1
   189    17    20    1
   190    20    21    1
   191    27    28    1
   192    30    28   am
   193    28    29    2
