@<TRIPOS>MOLECULE
tmp/2g80A00.pdb
 76 75 0 0 0
SMALL
GASTEIGER

@<TRIPOS>ATOM
      1  N         30.1830   -4.9260   27.2140 N.3    16  PRO16      -0.2116
      2  CA        30.8030   -5.8650   26.2880 C.3    16  PRO16       0.1372
      3  C         29.7870   -6.8570   25.7410 C.2    16  PRO16       0.2244
      4  O         28.9590   -7.3980   26.4760 O.2    16  PRO16      -0.2868
      5  CB        31.7960   -6.6380   27.1610 C.3    16  PRO16       0.0268
      6  CG        32.0950   -5.7500   28.2600 C.3    16  PRO16       0.0207
      7  CD        30.9470   -4.8680   28.4660 C.3    16  PRO16       0.0892
      8  N         29.1830   -5.7190   33.4770 N.3    97  PRO97      -0.2102
      9  CA        30.4330   -5.0260   33.1640 C.3    97  PRO97       0.1504
     10  C         30.2890   -3.7680   32.2740 C.2    97  PRO97       0.2576
     11  O         30.7810   -3.7360   31.1450 O.2    97  PRO97      -0.2718
     12  CB        31.2570   -6.1260   32.4600 C.3    97  PRO97       0.0282
     13  CG        30.2760   -6.9610   31.7900 C.3    97  PRO97       0.0208
     14  CD        29.0190   -6.9150   32.6200 C.3    97  PRO97       0.0893
     15  N         29.6940   -2.7010   32.7870 N.am   98  VAL98      -0.1966
     16  CA        29.5570   -1.4800   32.0060 C.3    98  VAL98       0.1727
     17  C         30.9030   -0.7780   31.9050 C.2    98  VAL98       0.2616
     18  O         31.6050   -0.6200   32.9030 O.2    98  VAL98      -0.2715
     19  CB        28.4700   -0.5710   32.5680 C.3    98  VAL98       0.0290
     20  CG1       28.3440    0.7440   31.7670 C.3    98  VAL98       0.0023
     21  CG2       27.1140   -1.3350   32.5890 C.3    98  VAL98       0.0023
     22  N         31.2420   -0.3070   30.7050 N.am   99  TYR99      -0.1960
     23  CA        32.5190    0.3850   30.4850 C.3    99  TYR99       0.1771
     24  C         32.6100    1.6070   31.3820 C.2    99  TYR99       0.2619
     25  O         31.6280    2.3400   31.5300 O.2    99  TYR99      -0.2715
     26  CB        32.7190    0.7890   29.0160 C.3    99  TYR99       0.0574
     27  CG        32.7910   -0.3720   28.0490 C.ar   99  TYR99      -0.0198
     28  CD1       33.9310   -1.1870   27.9770 C.ar   99  TYR99      -0.0009
     29  CD2       31.7460   -0.6480   27.1830 C.ar   99  TYR99      -0.0009
     30  CE1       33.9870   -2.2660   27.0790 C.ar   99  TYR99       0.0417
     31  CE2       31.8080   -1.7270   26.2670 C.ar   99  TYR99       0.0417
     32  CZ        32.9250   -2.5100   26.2140 C.ar   99  TYR99       0.1957
     33  OH        32.9760   -3.5430   25.3180 O.3    99  TYR99      -0.2866
     34  N         33.7880    1.8320   31.9790 N.am  100  ALA100     -0.1977
     35  CA        33.9670    2.9650   32.9080 C.3   100  ALA100      0.1597
     36  C         33.5100    4.3380   32.3180 C.2   100  ALA100      0.2287
     37  O         32.7790    5.0880   32.9540 O.2   100  ALA100     -0.2864
     38  CB        35.3620    3.0220   33.3870 C.3   100  ALA100      0.0319
     39  N         29.7080    4.6180   32.2310 N.3   103  ILE103     -0.1245
     40  CA        29.2230    4.9300   33.5840 C.3   103  ILE103      0.1561
     41  C         29.2770    6.4420   33.8210 C.2   103  ILE103      0.2260
     42  O         28.3110    7.0150   34.3010 O.2   103  ILE103     -0.2867
     43  CB        30.0330    4.1690   34.7310 C.3   103  ILE103      0.0252
     44  CG1       29.7320    2.6670   34.6950 C.3   103  ILE103      0.0019
     45  CG2       29.6660    4.6850   36.1110 C.3   103  ILE103      0.0019
     46  CD1       30.6690    1.8270   35.5850 C.3   103  ILE103      0.0001
     47  N         29.0580   -3.6270   37.7350 N.3   131  GLN131     -0.1245
     48  CA        30.3970   -3.8970   38.2380 C.3   131  GLN131      0.1566
     49  C         31.1460   -2.5710   38.4360 C.2   131  GLN131      0.2260
     50  O         31.1380   -1.6840   37.5450 O.2   131  GLN131     -0.2867
     51  CB        31.1310   -4.7950   37.2620 C.3   131  GLN131      0.0367
     52  CG        32.5060   -5.1750   37.6230 C.3   131  GLN131      0.0905
     53  CD        33.0650   -6.2100   36.6760 C.2   131  GLN131      0.2608
     54  OE1       33.8810   -5.8980   35.8120 O.2   131  GLN131     -0.2717
     55  NE2       32.6060   -7.4430   36.8140 N.am  131  GLN131     -0.0878
     56  N         34.1590   -0.4290   38.2930 N.3   133  PRO133     -0.2116
     57  CA        35.4800   -0.5210   37.6120 C.3   133  PRO133      0.1372
     58  C         36.6740   -0.4090   38.5690 C.2   133  PRO133      0.2244
     59  O         37.6980   -1.0280   38.3330 O.2   133  PRO133     -0.2868
     60  CB        35.4630    0.6550   36.6090 C.3   133  PRO133      0.0268
     61  CG        34.0070    1.0840   36.5030 C.3   133  PRO133      0.0207
     62  CD        33.3860    0.7500   37.8300 C.3   133  PRO133      0.0892
     63  N         36.0370   -4.5500   40.7990 N.3   136  PRO136     -0.2116
     64  CA        35.0340   -5.4790   40.2680 C.3   136  PRO136      0.1372
     65  C         34.3930   -6.4540   41.2460 C.2   136  PRO136      0.2244
     66  O         33.1880   -6.6320   41.2110 O.2   136  PRO136     -0.2868
     67  CB        35.8120   -6.2350   39.1960 C.3   136  PRO136      0.0268
     68  CG        36.7240   -5.1900   38.6590 C.3   136  PRO136      0.0207
     69  CD        37.1680   -4.4060   39.8500 C.3   136  PRO136      0.0892
     70  N         36.0820   -3.1600   22.0340 N.3   205  PRO205     -0.2116
     71  CA        36.7950   -4.4530   21.8570 C.3   205  PRO205      0.1372
     72  C         35.8090   -5.6210   21.8600 C.2   205  PRO205      0.2244
     73  O         34.9010   -5.6620   22.6950 O.2   205  PRO205     -0.2868
     74  CB        37.7240   -4.5270   23.0810 C.3   205  PRO205      0.0268
     75  CG        37.8830   -3.1170   23.5400 C.3   205  PRO205      0.0207
     76  CD        36.6050   -2.4100   23.2020 C.3   205  PRO205      0.0892
@<TRIPOS>BOND
     1    71    72    1
     2    71    70    1
     3    71    74    1
     4    72    73    2
     5    70    76    1
     6    74    75    1
     7    76    75    1
     8    33    32    1
     9     3     2    1
    10     3     4    2
    11    32    31   ar
    12    32    30   ar
    13    31    29   ar
    14     2     5    1
    15     2     1    1
    16    30    28   ar
    17     5     6    1
    18    29    27   ar
    19     1     7    1
    20    28    27   ar
    21    27    26    1
    22     6     7    1
    23    26    23    1
    24    23    22    1
    25    23    24    1
    26    22    17   am
    27    11    10    2
    28    24    25    2
    29    24    34   am
    30    20    19    1
    31    13    12    1
    32    13    14    1
    33    17    16    1
    34    17    18    2
    35    34    35    1
    36    16    19    1
    37    16    15    1
    38    39    40    1
    39    10    15   am
    40    10     9    1
    41    36    35    1
    42    36    37    2
    43    12     9    1
    44    19    21    1
    45    14     8    1
    46    35    38    1
    47     9     8    1
    48    40    41    1
    49    40    43    1
    50    41    42    2
    51    44    43    1
    52    44    46    1
    53    43    45    1
    54    54    53    2
    55    61    60    1
    56    61    62    1
    57    60    57    1
    58    53    55   am
    59    53    52    1
    60    51    52    1
    61    51    48    1
    62    50    49    2
    63    57    56    1
    64    57    58    1
    65    47    48    1
    66    62    56    1
    67    48    49    1
    68    59    58    2
    69    68    67    1
    70    68    69    1
    71    67    64    1
    72    69    63    1
    73    64    63    1
    74    64    65    1
    75    66    65    2
