@<TRIPOS>MOLECULE
tmp/2g81B00.pdb
 91 86 0 0 0
SMALL
GASTEIGER

@<TRIPOS>ATOM
      1  N         18.3810   -8.5540  -16.6830 N.3     5  ARG5       -0.1245
      2  CA        19.7870   -8.2010  -16.5290 C.3     5  ARG5        0.1563
      3  C         20.4780   -9.4110  -15.9600 C.2     5  ARG5        0.2260
      4  O         20.3760   -9.6770  -14.7750 O.2     5  ARG5       -0.2867
      5  CB        19.9080   -7.0320  -15.5710 C.3     5  ARG5        0.0307
      6  CG        19.2260   -5.7980  -16.1170 C.3     5  ARG5        0.0489
      7  CD        19.4620   -4.6270  -15.1860 C.3     5  ARG5        0.2205
      8  NE        18.6850   -3.4730  -15.6250 N.pl3   5  ARG5       -0.0865
      9  CZ        18.7830   -2.2530  -15.1030 C.cat   5  ARG5        0.5346
     10  NH1       19.6470   -2.0020  -14.1300 N.pl3   5  ARG5        0.1354
     11  NH2       18.0080   -1.2830  -15.5730 N.pl3   5  ARG5        0.1354
     12  N         24.1200  -11.4280  -15.6350 N.3     7  GLU7       -0.1231
     13  CA        25.5550  -11.3270  -15.8530 C.3     7  GLU7        0.1699
     14  C         26.2050  -12.5910  -15.3580 C.2     7  GLU7        0.2592
     15  O         25.7810  -13.1830  -14.3680 O.2     7  GLU7       -0.2718
     16  CB        26.1360  -10.1160  -15.1320 C.3     7  GLU7        0.0402
     17  CG        25.5280   -8.7850  -15.6230 C.3     7  GLU7        0.1161
     18  CD        24.2500   -8.4420  -14.8980 C.2     7  GLU7        0.3649
     19  OE1       24.1850   -8.7080  -13.6900 O.co2   7  GLU7       -0.2457
     20  OE2       23.3220   -7.9180  -15.5490 O.co2   7  GLU7       -0.2457
     21  N         27.2710  -12.9840  -16.0390 N.am    8  CYS8       -0.1956
     22  CA        27.9470  -14.2100  -15.6730 C.3     8  CYS8        0.1843
     23  C         29.4290  -13.9770  -15.6040 C.2     8  CYS8        0.2626
     24  O         29.9750  -13.1760  -16.3450 O.2     8  CYS8       -0.2714
     25  CB        27.7650  -15.2660  -16.7450 C.3     8  CYS8        0.0997
     26  SG        26.0530  -15.6260  -17.1350 S.3     8  CYS8       -0.0797
     27  N         30.0730  -14.7150  -14.7290 N.am    9  THR9       -0.1950
     28  CA        31.5230  -14.8030  -14.8100 C.3     9  THR9        0.1897
     29  C         31.8810  -15.4930  -16.1040 C.2     9  THR9        0.2313
     30  O         31.0740  -16.2150  -16.6800 O.2     9  THR9       -0.2863
     31  CB        32.0780  -15.6690  -13.6930 C.3     9  THR9        0.1794
     32  OG1       31.5970  -17.0070  -13.8350 O.3     9  THR9       -0.2208
     33  CG2       31.7160  -15.1000  -12.3430 C.3     9  THR9        0.0378
     34  N         29.2000  -18.7260  -13.9690 N.3    15  GLN15      -0.1231
     35  CA        28.4240  -18.4580  -12.7720 C.3    15  GLN15       0.1698
     36  C         27.6400  -17.2220  -13.0650 C.2    15  GLN15       0.2592
     37  O         28.2120  -16.1590  -13.2560 O.2    15  GLN15      -0.2718
     38  CB        29.3360  -18.2360  -11.5970 C.3    15  GLN15       0.0381
     39  CG        30.1780  -19.4610  -11.3180 C.3    15  GLN15       0.0905
     40  CD        30.9380  -19.3010  -10.0600 C.2    15  GLN15       0.2608
     41  OE1       30.3550  -18.9550   -9.0130 O.2    15  GLN15      -0.2717
     42  NE2       32.2500  -19.5210  -10.1310 N.am   15  GLN15      -0.0878
     43  N         26.3140  -17.3670  -13.1000 N.am   16  CYS16      -0.1956
     44  CA        25.4590  -16.2940  -13.5600 C.3    16  CYS16       0.1843
     45  C         24.4990  -15.8870  -12.4910 C.2    16  CYS16       0.2625
     46  O         24.0520  -16.7120  -11.7060 O.2    16  CYS16      -0.2714
     47  CB        24.6180  -16.7620  -14.7410 C.3    16  CYS16       0.0997
     48  SG        25.6100  -17.3330  -16.1390 S.3    16  CYS16      -0.0797
     49  N         24.1490  -14.6180  -12.4930 N.am   17  ARG17      -0.1977
     50  CA        23.1730  -14.1190  -11.5470 C.3    17  ARG17       0.1597
     51  C         22.2470  -13.2240  -12.3090 C.2    17  ARG17       0.2287
     52  O         22.6390  -12.6370  -13.3230 O.2    17  ARG17      -0.2864
     53  CB        23.9320  -13.3680  -10.4370 C.3    17  ARG17       0.0334
     54  CG        23.2020  -12.7540   -9.2710 C.3    17  ARG17       0.0492
     55  CD        24.1740  -12.5170   -8.0380 C.3    17  ARG17       0.2205
     56  NE        25.4970  -11.9890   -8.4140 N.pl3  17  ARG17      -0.0865
     57  CZ        26.6350  -12.2660   -7.7640 C.cat  17  ARG17       0.5346
     58  NH1       26.6200  -13.0650   -6.7210 N.pl3  17  ARG17       0.1354
     59  NH2       27.8110  -11.7520   -8.1690 N.pl3  17  ARG17       0.1354
     60  N         20.5470   -9.7980  -12.0340 N.3    19  SER19      -0.1217
     61  CA        20.6750   -8.5830  -11.2280 C.3    19  SER19       0.1889
     62  C         19.4380   -7.7120  -11.2300 C.2    19  SER19       0.2288
     63  O         19.4580   -6.6130  -10.6700 O.2    19  SER19      -0.2866
     64  CB        21.8840   -7.7640  -11.6550 C.3    19  SER19       0.2089
     65  OG        21.7790   -7.4040  -13.0130 O.3    19  SER19      -0.2183
     66  N         16.3420   -5.8130  -10.1960 N.3    21  VAL21      -0.1245
     67  CA        15.7810   -5.3970   -8.9250 C.3    21  VAL21       0.1561
     68  C         14.3150   -5.1560   -9.2170 C.2    21  VAL21       0.2260
     69  O         13.9670   -4.4360  -10.1590 O.2    21  VAL21      -0.2867
     70  CB        16.4500   -4.1280   -8.4020 C.3    21  VAL21       0.0252
     71  CG1       15.7420   -3.6270   -7.1470 C.3    21  VAL21       0.0019
     72  CG2       17.9090   -4.4030   -8.1010 C.3    21  VAL21       0.0019
     73  N         16.1220   -8.5740   -5.1430 N.3    44  PHE44      -0.1241
     74  CA        16.8100   -9.1750   -6.2590 C.3    44  PHE44       0.1605
     75  C         17.2010  -10.5820   -5.8950 C.2    44  PHE44       0.2264
     76  O         17.3290  -10.9260   -4.7140 O.2    44  PHE44      -0.2867
     77  CB        18.0180   -8.3500   -6.6830 C.3    44  PHE44       0.0534
     78  CG        19.1420   -8.3840   -5.7140 C.ar   44  PHE44      -0.0203
     79  CD1       20.2080   -9.2480   -5.9060 C.ar   44  PHE44      -0.0042
     80  CD2       19.1480   -7.5560   -4.6110 C.ar   44  PHE44      -0.0042
     81  CE1       21.2680   -9.2770   -5.0150 C.ar   44  PHE44      -0.0003
     82  CE2       20.2030   -7.5810   -3.7010 C.ar   44  PHE44      -0.0003
     83  CZ        21.2640   -8.4390   -3.9060 C.ar   44  PHE44      -0.0000
     84  N         22.9070  -18.1730   -7.8690 N.3    48  ILE48      -0.1245
     85  CA        23.9620  -18.2880   -8.8620 C.3    48  ILE48       0.1561
     86  C         23.7160  -19.5800   -9.6170 C.2    48  ILE48       0.2260
     87  O         23.5150  -20.6380   -8.9990 O.2    48  ILE48      -0.2867
     88  CB        25.3370  -18.3310   -8.1820 C.3    48  ILE48       0.0252
     89  CG1       25.5700  -17.0730   -7.3460 C.3    48  ILE48       0.0019
     90  CG2       26.4340  -18.5260   -9.2430 C.3    48  ILE48       0.0019
     91  CD1       26.7280  -17.1780   -6.3780 C.3    48  ILE48       0.0001
@<TRIPOS>BOND
     1    26    25    1
     2    26    48    1
     3    25    22    1
     4     1     2    1
     5    30    29    2
     6     2     3    1
     7     2     5    1
     8    24    23    2
     9    48    47    1
    10     6     5    1
    11     6     7    1
    12    29    28    1
    13    21    22    1
    14    21    14   am
    15     3     4    2
    16    13    12    1
    17    13    14    1
    18    13    16    1
    19    22    23    1
    20     8     7    1
    21     8     9    2
    22    17    16    1
    23    17    18    1
    24    23    27   am
    25    11     9    1
    26    20    18   ar
    27    14    15    2
    28     9    10    1
    29    18    19   ar
    30    28    27    1
    31    28    31    1
    32    47    44    1
    33    34    35    1
    34    32    31    1
    35    31    33    1
    36    44    43    1
    37    44    45    1
    38    52    51    2
    39    37    36    2
    40    43    36   am
    41    36    35    1
    42    65    64    1
    43    35    38    1
    44    49    45   am
    45    49    50    1
    46    45    46    2
    47    51    50    1
    48    60    61    1
    49    64    61    1
    50    38    39    1
    51    50    53    1
    52    39    40    1
    53    62    61    1
    54    62    63    2
    55    53    54    1
    56    66    67    1
    57    69    68    2
    58    42    40   am
    59    40    41    2
    60    86    87    2
    61    86    85    1
    62    54    55    1
    63    90    88    1
    64    68    67    1
    65    67    70    1
    66    85    88    1
    67    85    84    1
    68    56    55    1
    69    56    57    2
    70    70    72    1
    71    70    71    1
    72    88    89    1
    73    59    57    1
    74    57    58    1
    75    89    91    1
    76    77    74    1
    77    77    78    1
    78    74    75    1
    79    74    73    1
    80    79    78   ar
    81    79    81   ar
    82    75    76    2
    83    78    80   ar
    84    81    83   ar
    85    80    82   ar
    86    83    82   ar
