@<TRIPOS>MOLECULE
tmp/2g81A00.pdb
 89 89 0 0 0
SMALL
GASTEIGER

@<TRIPOS>ATOM
      1  N         37.3030  -15.9290   -8.7950 N.3    40  HIS40      -0.1241
      2  CA        36.2020  -16.8490   -9.0900 C.3    40  HIS40       0.1621
      3  C         36.6820  -18.0660   -9.8730 C.2    40  HIS40       0.2264
      4  O         35.9000  -18.9990  -10.0980 O.2    40  HIS40      -0.2867
      5  CB        35.0310  -16.1480   -9.7870 C.3    40  HIS40       0.0745
      6  CG        35.2790  -15.8620  -11.2360 C.ar   40  HIS40       0.0817
      7  ND1       35.7180  -14.6310  -11.6840 N.ar   40  HIS40      -0.2268
      8  CD2       35.1530  -16.6430  -12.3340 C.ar   40  HIS40       0.1154
      9  CE1       35.8400  -14.6710  -13.0010 C.ar   40  HIS40       0.1986
     10  NE2       35.5060  -15.8740  -13.4160 N.ar   40  HIS40      -0.2212
     11  N         37.9550  -10.4370   -1.5450 N.3    76  TYR76      -0.1241
     12  CA        37.1050  -10.9520   -2.6130 C.3    76  TYR76       0.1605
     13  C         35.7070  -11.1940   -2.0970 C.2    76  TYR76       0.2264
     14  O         35.5170  -11.8510   -1.0740 O.2    76  TYR76      -0.2867
     15  CB        37.6650  -12.2470   -3.1550 C.3    76  TYR76       0.0534
     16  CG        36.7290  -12.8980   -4.1350 C.ar   76  TYR76      -0.0201
     17  CD1       36.2630  -14.1870   -3.9240 C.ar   76  TYR76      -0.0009
     18  CD2       36.3110  -12.2110   -5.2740 C.ar   76  TYR76      -0.0009
     19  CE1       35.3940  -14.7840   -4.8280 C.ar   76  TYR76       0.0417
     20  CE2       35.4720  -12.8140   -6.1860 C.ar   76  TYR76       0.0417
     21  CZ        35.0250  -14.0910   -5.9580 C.ar   76  TYR76       0.1957
     22  OH        34.1900  -14.6720   -6.8750 O.3    76  TYR76      -0.2866
     23  N         32.2380  -12.7330   -3.4960 N.3    78  SER78      -0.1202
     24  CA        31.5490  -13.3830   -4.6050 C.3    78  SER78       0.2020
     25  C         30.1820  -12.7430   -4.8620 C.2    78  SER78       0.2619
     26  O         29.6130  -12.9070   -5.9490 O.2    78  SER78      -0.2717
     27  CB        31.4230  -14.8770   -4.3470 C.3    78  SER78       0.2103
     28  OG        30.7460  -15.0970   -3.1250 O.3    78  SER78      -0.2182
     29  N         29.6580  -11.9990   -3.8960 N.am   79  ASN79      -0.1960
     30  CA        28.3480  -11.3530   -4.0720 C.3    79  ASN79       0.1819
     31  C         28.4340  -10.2060   -5.0680 C.2    79  ASN79       0.2622
     32  O         27.4360   -9.8180   -5.6640 O.2    79  ASN79      -0.2715
     33  CB        27.8160  -10.7790   -2.7590 C.3    79  ASN79       0.1195
     34  CG        27.4540  -11.8460   -1.7550 C.2    79  ASN79       0.2630
     35  OD1       27.1210  -12.9750   -2.1180 O.2    79  ASN79      -0.2716
     36  ND2       27.5470  -11.4990   -0.4740 N.am   79  ASN79      -0.0877
     37  N         29.6410   -9.6570   -5.2270 N.am   80  THR80      -0.1937
     38  CA        29.7990   -8.4540   -6.0330 C.3    80  THR80       0.2028
     39  C         30.8890   -8.6120   -7.0810 C.2    80  THR80       0.2642
     40  O         31.0250   -7.7650   -7.9650 O.2    80  THR80      -0.2714
     41  CB        30.1580   -7.2600   -5.1700 C.3    80  THR80       0.1808
     42  OG1       31.3940   -7.5310   -4.4840 O.3    80  THR80      -0.2208
     43  CG2       29.0500   -6.9860   -4.1490 C.3    80  THR80       0.0379
     44  N         31.6700   -9.6740   -6.9550 N.am   81  LEU81      -0.1977
     45  CA        32.8890   -9.8630   -7.7360 C.3    81  LEU81       0.1596
     46  C         33.9060   -8.7640   -7.5060 C.2    81  LEU81       0.2287
     47  O         34.8530   -8.6080   -8.2560 O.2    81  LEU81      -0.2864
     48  CB        32.6160  -10.0610   -9.2330 C.3    81  LEU81       0.0297
     49  CG        31.9140  -11.3750   -9.5710 C.3    81  LEU81       0.0022
     50  CD1       31.7680  -11.4770  -11.0620 C.3    81  LEU81       0.0001
     51  CD2       32.7080  -12.5600   -9.0670 C.3    81  LEU81       0.0001
     52  N         24.4950   -1.0550  -14.1220 N.3   153  PRO153     -0.2102
     53  CA        24.1730   -0.1390  -13.0390 C.3   153  PRO153      0.1504
     54  C         24.3460   -0.7740  -11.6850 C.2   153  PRO153      0.2576
     55  O         23.8750   -1.8800  -11.4640 O.2   153  PRO153     -0.2718
     56  CB        22.7090    0.2210  -13.3140 C.3   153  PRO153      0.0282
     57  CG        22.6050    0.1090  -14.8070 C.3   153  PRO153      0.0208
     58  CD        23.3980   -1.1710  -15.0950 C.3   153  PRO153      0.0893
     59  N         25.0670   -0.0730  -10.8180 N.am  154  GLY154     -0.1943
     60  CA        25.2340   -0.4790   -9.4470 C.3   154  GLY154      0.2014
     61  C         26.2300   -1.5990   -9.2550 C.2   154  GLY154      0.2638
     62  O         26.3650   -2.1030   -8.1490 O.2   154  GLY154     -0.2714
     63  N         26.9410   -1.9870  -10.3130 N.am  155  GLN155     -0.1977
     64  CA        27.7900   -3.1850  -10.1940 C.3   155  GLN155      0.1601
     65  C         29.2630   -2.9560  -10.3650 C.2   155  GLN155      0.2287
     66  O         30.0580   -3.8410  -10.0560 O.2   155  GLN155     -0.2864
     67  CB        27.3570   -4.2140  -11.2220 C.3   155  GLN155      0.0394
     68  CG        25.9480   -4.7310  -10.9820 C.3   155  GLN155      0.0908
     69  CD        25.5670   -5.7390  -12.0230 C.2   155  GLN155      0.2608
     70  OE1       25.3010   -6.9130  -11.7130 O.2   155  GLN155     -0.2717
     71  NE2       25.5440   -5.3060  -13.2620 N.am  155  GLN155     -0.0878
     72  N         33.8860  -10.7300  -15.7890 N.3   193  TRP193     -0.1227
     73  CA        32.4760  -11.0240  -16.0130 C.3   193  TRP193      0.1737
     74  C         31.8770  -10.0930  -17.0350 C.2   193  TRP193      0.2596
     75  O         32.5320   -9.1920  -17.5270 O.2   193  TRP193     -0.2718
     76  CB        31.7080  -10.9130  -14.6950 C.3   193  TRP193      0.0564
     77  CG        31.7350   -9.5900  -14.0150 C.ar  193  TRP193      0.0003
     78  CD1       32.7030   -9.1020  -13.1890 C.ar  193  TRP193      0.0946
     79  CD2       30.7120   -8.5890  -14.0760 C.ar  193  TRP193      0.0152
     80  NE1       32.3430   -7.8470  -12.7260 N.ar  193  TRP193     -0.2442
     81  CE2       31.1180   -7.5220  -13.2540 C.ar  193  TRP193      0.0810
     82  CE3       29.4910   -8.4870  -14.7630 C.ar  193  TRP193      0.0012
     83  CZ2       30.3490   -6.3710  -13.0930 C.ar  193  TRP193      0.0191
     84  CZ3       28.7220   -7.3480  -14.5840 C.ar  193  TRP193      0.0001
     85  CH2       29.1540   -6.3110  -13.7560 C.ar  193  TRP193      0.0015
     86  N         30.6240  -10.3470  -17.3760 N.am  194  GLY194     -0.1957
     87  CA        29.9130   -9.4600  -18.2640 C.3   194  GLY194      0.1869
     88  C         28.5410  -10.0330  -18.4850 C.2   194  GLY194      0.2309
     89  O         28.2470  -11.1310  -18.0530 O.2   194  GLY194     -0.2863
@<TRIPOS>BOND
     1    88    87    1
     2    88    89    2
     3    87    86    1
     4    75    74    2
     5    86    74   am
     6    74    73    1
     7    73    72    1
     8    73    76    1
     9    58    57    1
    10    58    52    1
    11    57    56    1
    12    82    84   ar
    13    82    79   ar
    14    76    77    1
    15    84    85   ar
    16    52    53    1
    17    79    77   ar
    18    79    81   ar
    19    77    78   ar
    20    85    83   ar
    21    10     9   ar
    22    10     8   ar
    23    56    53    1
    24    71    69   am
    25    81    83   ar
    26    81    80   ar
    27    78    80   ar
    28    53    54    1
    29     9     7   ar
    30     8     6   ar
    31    69    70    2
    32    69    68    1
    33    54    55    2
    34    54    59   am
    35     7     6   ar
    36     6     5    1
    37    67    68    1
    38    67    64    1
    39    50    49    1
    40    59    60    1
    41    65    64    1
    42    65    66    2
    43    63    64    1
    44    63    61   am
    45     4     3    2
    46     3     2    1
    47     5     2    1
    48    49    48    1
    49    49    51    1
    50    60    61    1
    51    61    62    2
    52    48    45    1
    53     2     1    1
    54    47    46    2
    55    40    39    2
    56    45    46    1
    57    45    44    1
    58    39    44   am
    59    39    38    1
    60    22    21    1
    61    20    21   ar
    62    20    18   ar
    63    38    37    1
    64    38    41    1
    65    21    19   ar
    66    26    25    2
    67    32    31    2
    68    18    16   ar
    69    37    31   am
    70    41    42    1
    71    41    43    1
    72    31    30    1
    73    25    24    1
    74    25    29   am
    75    19    17   ar
    76    24    27    1
    77    24    23    1
    78    27    28    1
    79    16    17   ar
    80    16    15    1
    81    30    29    1
    82    30    33    1
    83    15    12    1
    84    33    34    1
    85    12    13    1
    86    12    11    1
    87    35    34    2
    88    13    14    2
    89    34    36   am
