@<TRIPOS>MOLECULE
tmp/2g83B00.pdb
 142 137 0 0 0
SMALL
GASTEIGER

@<TRIPOS>ATOM
      1  N         37.2140  -32.0530  -88.7350 N.3   163  ARG163     -0.1245
      2  CA        36.2190  -32.7830  -89.3160 C.3   163  ARG163      0.1563
      3  C         36.5900  -33.3220  -90.6340 C.2   163  ARG163      0.2260
      4  O         36.3070  -34.3880  -90.9450 O.2   163  ARG163     -0.2867
      5  CB        35.0770  -31.8890  -89.3730 C.3   163  ARG163      0.0307
      6  CG        34.4530  -31.6660  -88.0770 C.3   163  ARG163      0.0489
      7  CD        33.3030  -30.7580  -88.1730 C.3   163  ARG163      0.2205
      8  NE        32.4000  -30.7020  -87.0600 N.pl3 163  ARG163     -0.0865
      9  CZ        31.4260  -29.8680  -87.0330 C.cat 163  ARG163      0.5346
     10  NH1       31.2940  -29.0650  -88.0160 N.pl3 163  ARG163      0.1354
     11  NH2       30.6050  -29.7940  -86.0440 N.pl3 163  ARG163      0.1354
     12  N         38.5210  -36.8860  -90.6430 N.3   166  ARG166     -0.1182
     13  CA        38.2060  -37.7430  -89.5740 C.3   166  ARG166      0.1910
     14  C         37.7510  -38.9110  -90.2710 C.2   166  ARG166      0.2634
     15  O         37.4410  -39.8760  -89.7190 O.2   166  ARG166     -0.2714
     16  CB        37.0400  -37.1850  -88.8220 C.2   166  ARG166      0.0007
     17  CG        37.3590  -36.4050  -87.6140 C.2   166  ARG166      0.0176
     18  CD        36.2150  -35.8600  -86.8970 C.3   166  ARG166      0.2464
     19  NE        36.6010  -34.6760  -86.2160 N.pl3 166  ARG166     -0.0815
     20  CZ        35.8110  -33.9560  -85.5280 C.cat 166  ARG166      0.5349
     21  NH1       34.6050  -34.2760  -85.4060 N.pl3 166  ARG166      0.1354
     22  NH2       36.2100  -32.8960  -84.9720 N.pl3 166  ARG166      0.1354
     23  N         37.7750  -38.8100  -91.5420 N.am  167  LYS167     -0.1977
     24  CA        37.0470  -39.6920  -92.3080 C.3   167  LYS167      0.1596
     25  C         37.9950  -40.6420  -92.8870 C.2   167  LYS167      0.2287
     26  O         37.6720  -41.6940  -93.2520 O.2   167  LYS167     -0.2864
     27  CB        36.4890  -38.8820  -93.3970 C.3   167  LYS167      0.0298
     28  CG        35.0950  -38.4620  -93.1830 C.3   167  LYS167      0.0038
     29  CD        34.2230  -38.5530  -94.4310 C.3   167  LYS167      0.0206
     30  CE        33.1640  -37.4060  -94.5270 C.3   167  LYS167      0.1093
     31  NZ        32.0840  -37.4930  -95.5690 N.3   167  LYS167     -0.1314
     32  N         39.7260  -42.0690  -91.0750 N.3   169  TRP169     -0.1227
     33  CA        40.2920  -42.6440  -89.9330 C.3   169  TRP169      0.1737
     34  C         40.0220  -44.0620  -89.9950 C.2   169  TRP169      0.2595
     35  O         40.5660  -44.7720  -89.2930 O.2   169  TRP169     -0.2718
     36  CB        39.7270  -42.1020  -88.6470 C.3   169  TRP169      0.0564
     37  CG        40.1710  -40.8080  -88.1700 C.ar  169  TRP169      0.0003
     38  CD1       40.9880  -40.0180  -88.7530 C.ar  169  TRP169      0.0946
     39  CD2       39.7550  -40.1500  -86.9990 C.ar  169  TRP169      0.0152
     40  NE1       41.1540  -38.8720  -88.0350 N.ar  169  TRP169     -0.2442
     41  CE2       40.3680  -38.9610  -86.9530 C.ar  169  TRP169      0.0810
     42  CE3       38.9050  -40.4580  -85.9830 C.ar  169  TRP169      0.0012
     43  CZ2       40.1970  -38.1390  -85.9660 C.ar  169  TRP169      0.0191
     44  CZ3       38.7530  -39.6330  -85.0380 C.ar  169  TRP169      0.0001
     45  CH2       39.3750  -38.5090  -85.0080 C.ar  169  TRP169      0.0015
     46  N         39.1290  -44.5290  -90.7960 N.am  170  ILE170     -0.1980
     47  CA        38.6810  -45.8360  -90.4930 C.3   170  ILE170      0.1595
     48  C         39.7270  -46.7230  -90.7980 C.2   170  ILE170      0.2287
     49  O         39.6930  -47.8320  -90.5000 O.2   170  ILE170     -0.2864
     50  CB        37.4990  -46.2830  -91.2440 C.3   170  ILE170      0.0276
     51  CG1       36.9740  -45.2180  -92.1150 C.3   170  ILE170      0.0022
     52  CG2       36.4550  -46.8200  -90.3530 C.3   170  ILE170      0.0022
     53  CD1       37.9340  -44.5670  -92.7490 C.3   170  ILE170      0.0001
     54  N         41.2330  -48.4300  -87.9090 N.3   173  PHE173     -0.1241
     55  CA        40.6150  -48.9190  -86.7440 C.3   173  PHE173      0.1605
     56  C         40.7350  -50.3790  -86.5230 C.2   173  PHE173      0.2264
     57  O         40.0020  -50.9290  -85.8100 O.2   173  PHE173     -0.2867
     58  CB        39.2000  -48.5750  -86.7890 C.3   173  PHE173      0.0534
     59  CG        38.9180  -47.1730  -86.5290 C.ar  173  PHE173     -0.0203
     60  CD1       39.8610  -46.2980  -86.4740 C.ar  173  PHE173     -0.0042
     61  CD2       37.6740  -46.7440  -86.3530 C.ar  173  PHE173     -0.0042
     62  CE1       39.5770  -45.0740  -86.2600 C.ar  173  PHE173     -0.0003
     63  CE2       37.4360  -45.5120  -86.1470 C.ar  173  PHE173     -0.0003
     64  CZ        38.3830  -44.6940  -86.0860 C.ar  173  PHE173     -0.0000
     65  N         29.7240  -24.5560  -83.2090 N.3   198  MET198     -0.1245
     66  CA        30.0860  -25.5610  -82.3040 C.3   198  MET198      0.1570
     67  C         31.1290  -25.0950  -81.3540 C.2   198  MET198      0.2261
     68  O         32.1520  -24.6250  -81.7310 O.2   198  MET198     -0.2867
     69  CB        30.5300  -26.7820  -83.0030 C.3   198  MET198      0.0387
     70  CG        29.6160  -27.8340  -83.0020 C.3   198  MET198      0.0595
     71  SD        29.0630  -28.1280  -81.4780 S.3   198  MET198     -0.1393
     72  CE        28.8620  -29.7800  -81.6690 C.3   198  MET198      0.0692
     73  N         32.1090  -30.5740  -79.1960 N.3   203  GLU203     -0.1245
     74  CA        32.5770  -31.3900  -80.2230 C.3   203  GLU203      0.1567
     75  C         33.4300  -32.4380  -79.7150 C.2   203  GLU203      0.2260
     76  O         33.3730  -33.5070  -80.1290 O.2   203  GLU203     -0.2867
     77  CB        33.2550  -30.5480  -81.2310 C.3   203  GLU203      0.0388
     78  CG        33.7670  -31.2790  -82.4200 C.3   203  GLU203      0.1160
     79  CD        32.9270  -31.2260  -83.6180 C.2   203  GLU203      0.3649
     80  OE1       31.7680  -31.0880  -83.5710 O.co2 203  GLU203     -0.2457
     81  OE2       33.4590  -31.4040  -84.6400 O.co2 203  GLU203     -0.2457
     82  N         31.1620  -35.2840  -78.4860 N.3   206  LYS206     -0.1231
     83  CA        30.4180  -36.1130  -79.3030 C.3   206  LYS206      0.1693
     84  C         31.2720  -36.9550  -80.0650 C.2   206  LYS206      0.2591
     85  O         30.8400  -37.9290  -80.5620 O.2   206  LYS206     -0.2718
     86  CB        29.7690  -35.2980  -80.3110 C.3   206  LYS206      0.0285
     87  CG        29.0460  -34.1980  -79.8580 C.3   206  LYS206      0.0035
     88  CD        27.9670  -33.9400  -80.7700 C.3   206  LYS206      0.0206
     89  CE        26.8070  -33.3450  -80.0520 C.3   206  LYS206      0.1093
     90  NZ        25.6970  -32.8240  -80.8930 N.3   206  LYS206     -0.1314
     91  N         32.5030  -36.5610  -80.1920 N.am  207  LEU207     -0.1980
     92  CA        33.4540  -37.3380  -80.8830 C.3   207  LEU207      0.1596
     93  C         33.8810  -38.4670  -80.0540 C.2   207  LEU207      0.2287
     94  O         34.0150  -39.5190  -80.5170 O.2   207  LEU207     -0.2864
     95  CB        34.6240  -36.4790  -81.2450 C.3   207  LEU207      0.0297
     96  CG        35.4790  -36.5830  -82.5020 C.3   207  LEU207      0.0022
     97  CD1       36.6970  -36.2720  -82.2060 C.3   207  LEU207      0.0001
     98  CD2       35.5860  -37.8190  -83.0510 C.3   207  LEU207      0.0001
     99  N         31.9140  -39.8160  -77.6680 N.3   209  ASP209     -0.1225
    100  CA        30.8140  -40.6900  -77.6160 C.3   209  ASP209      0.1805
    101  C         31.0610  -41.6780  -78.6700 C.2   209  ASP209      0.2598
    102  O         30.6900  -42.7890  -78.5910 O.2   209  ASP209     -0.2718
    103  CB        29.5760  -39.8870  -77.8750 C.3   209  ASP209      0.1424
    104  CG        28.3510  -40.6020  -77.6520 C.2   209  ASP209      0.3668
    105  OD1       28.0330  -40.9330  -76.5630 O.co2 209  ASP209     -0.2456
    106  OD2       27.5850  -40.8380  -78.5360 O.co2 209  ASP209     -0.2456
    107  N         31.7010  -41.2860  -79.6990 N.am  210  SER210     -0.1938
    108  CA        31.3730  -41.8660  -80.8990 C.3   210  SER210      0.2055
    109  C         32.4740  -42.6990  -81.1900 C.2   210  SER210      0.2642
    110  O         32.3950  -43.5390  -81.9840 O.2   210  SER210     -0.2714
    111  CB        31.3060  -40.8310  -81.9000 C.3   210  SER210      0.2130
    112  OG        32.4770  -40.8280  -82.5230 O.3   210  SER210     -0.2179
    113  N         33.5340  -42.4970  -80.4890 N.am  211  ILE211     -0.1977
    114  CA        34.6200  -43.3990  -80.4440 C.3   211  ILE211      0.1596
    115  C         34.5260  -44.2970  -79.2730 C.2   211  ILE211      0.2287
    116  O         34.6920  -45.4350  -79.3600 O.2   211  ILE211     -0.2864
    117  CB        35.7670  -42.5820  -80.2760 C.3   211  ILE211      0.0276
    118  CG1       35.9670  -41.7200  -81.4480 C.3   211  ILE211      0.0022
    119  CG2       36.8850  -43.3100  -80.1920 C.3   211  ILE211      0.0022
    120  CD1       36.5150  -42.3850  -82.4770 C.3   211  ILE211      0.0001
    121  N         31.9550  -46.6320  -80.2030 N.3   214  ASN214     -0.1240
    122  CA        32.1240  -47.3240  -81.4370 C.3   214  ASN214      0.1653
    123  C         32.8550  -48.4960  -81.2370 C.2   214  ASN214      0.2266
    124  O         33.3520  -48.6870  -80.2190 O.2   214  ASN214     -0.2867
    125  CB        33.1870  -46.6290  -82.2220 C.3   214  ASN214      0.1155
    126  CG        33.3240  -47.0930  -83.5730 C.2   214  ASN214      0.2627
    127  OD1       33.5640  -48.2050  -83.7980 O.2   214  ASN214     -0.2716
    128  ND2       33.3010  -46.2080  -84.4740 N.am  214  ASN214     -0.0877
    129  N         34.3400  -50.8770  -83.2450 N.3   216  TRP216     -0.1241
    130  CA        35.6250  -51.3610  -83.4870 C.3   216  TRP216      0.1605
    131  C         36.3640  -51.4210  -82.2000 C.2   216  TRP216      0.2264
    132  O         37.2030  -52.2170  -82.0330 O.2   216  TRP216     -0.2867
    133  CB        36.2800  -50.5360  -84.5480 C.3   216  TRP216      0.0550
    134  CG        36.3550  -51.1360  -85.8900 C.ar  216  TRP216      0.0003
    135  CD1       37.1560  -52.0960  -86.2980 C.ar  216  TRP216      0.0946
    136  CD2       35.5950  -50.7860  -86.9680 C.ar  216  TRP216      0.0152
    137  NE1       36.9530  -52.3800  -87.6080 N.ar  216  TRP216     -0.2442
    138  CE2       35.9630  -51.5620  -88.0180 C.ar  216  TRP216      0.0810
    139  CE3       34.5830  -49.8950  -87.1470 C.ar  216  TRP216      0.0012
    140  CZ2       35.3590  -51.4830  -89.2100 C.ar  216  TRP216      0.0191
    141  CZ3       33.9870  -49.8090  -88.3290 C.ar  216  TRP216      0.0001
    142  CH2       34.3690  -50.5790  -89.3590 C.ar  216  TRP216      0.0015
@<TRIPOS>BOND
     1    31    30    1
     2    30    29    1
     3    29    28    1
     4    27    28    1
     5    27    24    1
     6    26    25    2
     7    25    24    1
     8    53    51    1
     9    24    23    1
    10    51    50    1
    11    23    14   am
    12    50    47    1
    13    50    52    1
    14    32    33    1
    15     4     3    2
    16    48    49    2
    17    48    47    1
    18    46    47    1
    19    46    34   am
    20    12    13    1
    21     3     2    1
    22    14    15    2
    23    14    13    1
    24    34    33    1
    25    34    35    2
    26    33    36    1
    27    13    16    1
    28     5     2    1
    29     5     6    1
    30   142   140   ar
    31   142   141   ar
    32     2     1    1
    33   140   138   ar
    34    16    17    2
    35    38    37   ar
    36    38    40   ar
    37    36    37    1
    38   141   139   ar
    39     7     6    1
    40     7     8    1
    41    37    39   ar
    42    40    41   ar
    43   138   137   ar
    44   138   136   ar
    45    10     9    1
    46    54    55    1
    47    17    18    1
    48   137   135   ar
    49   139   136   ar
    50     8     9    2
    51     9    11    1
    52    39    41   ar
    53    39    42   ar
    54   136   134   ar
    55    41    43   ar
    56    18    19    1
    57    58    55    1
    58    58    59    1
    59    55    56    1
    60    59    60   ar
    61    59    61   ar
    62    56    57    2
    63    60    62   ar
    64    61    63   ar
    65   135   134   ar
    66    62    64   ar
    67    19    20    2
    68    63    64   ar
    69    42    44   ar
    70    43    45   ar
    71   134   133    1
    72    20    21    1
    73    20    22    1
    74    44    45   ar
    75    81    79   ar
    76   133   130    1
    77   128   126   am
    78   127   126    2
    79    79    80   ar
    80    79    78    1
    81   126   125    1
    82   130   129    1
    83   130   131    1
    84    65    66    1
    85    98    96    1
    86    69    70    1
    87    69    66    1
    88    70    71    1
    89   112   111    1
    90    96    97    1
    91    96    95    1
    92   120   118    1
    93    78    77    1
    94    66    67    1
    95   125   122    1
    96   131   132    2
    97   110   109    2
    98   111   108    1
    99    68    67    2
   100    72    71    1
   101   118   117    1
   102   122   123    1
   103   122   121    1
   104    95    92    1
   105   123   124    2
   106    77    74    1
   107   109   108    1
   108   109   113   am
   109   108   107    1
   110    90    89    1
   111    92    91    1
   112    92    93    1
   113    88    89    1
   114    88    87    1
   115    85    84    2
   116    94    93    2
   117   113   114    1
   118   114   117    1
   119   114   115    1
   120    86    87    1
   121    86    83    1
   122   117   119    1
   123    74    75    1
   124    74    73    1
   125    91    84   am
   126    76    75    2
   127    84    83    1
   128   107   101   am
   129   116   115    2
   130    83    82    1
   131   101   102    2
   132   101   100    1
   133   106   104   ar
   134   103   104    1
   135   103   100    1
   136    99   100    1
   137   104   105   ar
