@<TRIPOS>MOLECULE
tmp/2g83A00.pdb
 142 137 0 0 0
SMALL
GASTEIGER

@<TRIPOS>ATOM
      1  N        -52.5970   18.8420   29.5050 N.3   163  ARG163     -0.1197
      2  CA       -52.2280   17.5720   29.1070 C.3   163  ARG163      0.1779
      3  C        -51.8340   17.8120   27.7720 C.2   163  ARG163      0.2305
      4  O        -51.0800   17.1360   27.2240 O.2   163  ARG163     -0.2863
      5  CB       -53.4490   16.7420   29.0390 C.2   163  ARG163     -0.0007
      6  CG       -53.9890   16.3270   30.3130 C.2   163  ARG163      0.0176
      7  CD       -55.2840   15.5880   30.2410 C.3   163  ARG163      0.2464
      8  NE       -55.4720   14.7000   31.3700 N.pl3 163  ARG163     -0.0815
      9  CZ       -56.5550   14.0480   31.6090 C.cat 163  ARG163      0.5349
     10  NH1      -57.5310   14.1800   30.8330 N.pl3 163  ARG163      0.1354
     11  NH2      -56.6750   13.2680   32.6180 N.pl3 163  ARG163      0.1354
     12  N        -48.3890   18.1700   27.4660 N.3   166  ARG166     -0.1231
     13  CA       -47.4050   17.3540   27.9970 C.3   166  ARG166      0.1694
     14  C        -46.8220   16.7530   26.8590 C.2   166  ARG166      0.2591
     15  O        -45.8680   16.0880   26.9270 O.2   166  ARG166     -0.2718
     16  CB       -48.0000   16.3890   28.9550 C.3   166  ARG166      0.0321
     17  CG       -48.5380   17.0640   30.1060 C.3   166  ARG166      0.0489
     18  CD       -49.2100   16.2470   30.9580 C.3   166  ARG166      0.2205
     19  NE       -49.9440   17.0310   31.8390 N.pl3 166  ARG166     -0.0865
     20  CZ       -50.9310   16.5910   32.4400 C.cat 166  ARG166      0.5346
     21  NH1      -51.3020   15.4220   32.2480 N.pl3 166  ARG166      0.1354
     22  NH2      -51.5730   17.3390   33.2110 N.pl3 166  ARG166      0.1354
     23  N        -47.3960   17.0160   25.7430 N.am  167  LYS167     -0.1980
     24  CA       -46.9920   16.2700   24.6340 C.3   167  LYS167      0.1596
     25  C        -45.5710   16.5690   24.2930 C.2   167  LYS167      0.2287
     26  O        -44.7910   15.6920   24.0930 O.2   167  LYS167     -0.2864
     27  CB       -47.9220   16.5270   23.5170 C.3   167  LYS167      0.0298
     28  CG       -49.3070   15.9740   23.7950 C.3   167  LYS167      0.0038
     29  CD       -50.1550   15.6050   22.5170 C.3   167  LYS167      0.0206
     30  CE       -51.5190   16.2850   22.4030 C.3   167  LYS167      0.1093
     31  NZ       -52.2690   15.8420   21.2430 N.3   167  LYS167     -0.1314
     32  N        -42.9990   17.4940   25.9760 N.3   169  TRP169     -0.1227
     33  CA       -42.0090   17.4660   26.9880 C.3   169  TRP169      0.1737
     34  C        -40.7970   16.6550   26.6530 C.2   169  TRP169      0.2595
     35  O        -39.7920   16.8450   27.2060 O.2   169  TRP169     -0.2718
     36  CB       -42.6100   16.9910   28.2840 C.3   169  TRP169      0.0564
     37  CG       -43.6120   17.8470   28.9990 C.ar  169  TRP169      0.0003
     38  CD1      -44.2060   18.8740   28.5380 C.ar  169  TRP169      0.0946
     39  CD2      -44.0950   17.6670   30.2950 C.ar  169  TRP169      0.0152
     40  NE1      -45.0430   19.4100   29.4600 N.ar  169  TRP169     -0.2442
     41  CE2      -44.9760   18.6320   30.5480 C.ar  169  TRP169      0.0810
     42  CE3      -43.8610   16.7650   31.2650 C.ar  169  TRP169      0.0012
     43  CZ2      -45.5790   18.7370   31.6920 C.ar  169  TRP169      0.0191
     44  CZ3      -44.4590   16.8900   32.3770 C.ar  169  TRP169      0.0001
     45  CH2      -45.3130   17.8310   32.5970 C.ar  169  TRP169      0.0015
     46  N        -40.8740   15.7350   25.7400 N.am  170  ILE170     -0.1980
     47  CA       -39.8690   14.7300   25.7010 C.3   170  ILE170      0.1595
     48  C        -38.7110   15.2660   25.0710 C.2   170  ILE170      0.2287
     49  O        -37.6950   14.6840   25.0330 O.2   170  ILE170     -0.2864
     50  CB       -40.2690   13.6280   24.8940 C.3   170  ILE170      0.0276
     51  CG1      -41.6680   13.8060   24.4890 C.3   170  ILE170      0.0022
     52  CG2      -40.1190   12.3850   25.6070 C.3   170  ILE170      0.0022
     53  CD1      -41.7330   14.0710   23.1270 C.3   170  ILE170      0.0001
     54  N        -35.8210   15.9000   27.6410 N.3   173  PHE173     -0.1241
     55  CA       -35.6240   14.9460   28.6340 C.3   173  PHE173      0.1605
     56  C        -34.1800   14.5400   28.7580 C.2   173  PHE173      0.2264
     57  O        -33.8470   13.8050   29.5930 O.2   173  PHE173     -0.2867
     58  CB       -36.5150   13.7650   28.4180 C.3   173  PHE173      0.0534
     59  CG       -37.8170   13.8230   29.1150 C.ar  173  PHE173     -0.0203
     60  CD1      -38.3140   14.9420   29.5680 C.ar  173  PHE173     -0.0042
     61  CD2      -38.5630   12.7570   29.2440 C.ar  173  PHE173     -0.0042
     62  CE1      -39.4620   14.9470   30.1500 C.ar  173  PHE173     -0.0003
     63  CE2      -39.6950   12.8320   29.8220 C.ar  173  PHE173     -0.0003
     64  CZ       -40.1250   13.9080   30.2610 C.ar  173  PHE173     -0.0000
     65  N        -62.0220   14.4490   36.1950 N.3   198  MET198     -0.1245
     66  CA       -60.8100   14.1060   36.9300 C.3   198  MET198      0.1570
     67  C        -60.4320   15.0280   38.0250 C.2   198  MET198      0.2261
     68  O        -60.3350   16.1920   37.8630 O.2   198  MET198     -0.2867
     69  CB       -59.6740   13.9670   35.9800 C.3   198  MET198      0.0387
     70  CG       -58.4490   13.3960   36.4850 C.3   198  MET198      0.0595
     71  SD       -58.5730   11.8420   37.1080 S.3   198  MET198     -0.1393
     72  CE       -57.1360   11.2620   36.5120 C.3   198  MET198      0.0692
     73  N        -54.8300   13.5450   39.0860 N.3   203  GLU203     -0.1245
     74  CA       -54.0570   13.6680   37.9240 C.3   203  GLU203      0.1567
     75  C        -52.7120   14.0110   38.1340 C.2   203  GLU203      0.2260
     76  O        -51.9780   13.9860   37.2590 O.2   203  GLU203     -0.2867
     77  CB       -54.6220   14.6630   37.0100 C.3   203  GLU203      0.0388
     78  CG       -53.7580   14.8740   35.8220 C.3   203  GLU203      0.1160
     79  CD       -54.3160   14.3970   34.5770 C.2   203  GLU203      0.3649
     80  OE1      -55.0560   13.4540   34.5660 O.co2 203  GLU203     -0.2457
     81  OE2      -53.9420   14.9580   33.6010 O.co2 203  GLU203     -0.2457
     82  N        -50.8740   10.6240   39.1700 N.3   206  LYS206     -0.1231
     83  CA       -50.5310    9.9420   38.0130 C.3   206  LYS206      0.1693
     84  C        -49.3200   10.3970   37.3730 C.2   206  LYS206      0.2591
     85  O        -48.4920    9.6340   37.0820 O.2   206  LYS206     -0.2718
     86  CB       -51.6380    9.9960   37.0840 C.3   206  LYS206      0.0285
     87  CG       -52.3810    8.8340   37.1160 C.3   206  LYS206      0.0035
     88  CD       -53.7110    9.1520   36.9360 C.3   206  LYS206      0.0206
     89  CE       -54.5190    7.9550   36.9430 C.3   206  LYS206      0.1093
     90  NZ       -54.6490    7.2600   35.6400 N.3   206  LYS206     -0.1314
     91  N        -49.2060   11.6660   37.1510 N.am  207  LEU207     -0.1980
     92  CA       -48.1090   12.2010   36.4750 C.3   207  LEU207      0.1596
     93  C        -46.9450   12.0830   37.2690 C.2   207  LEU207      0.2287
     94  O        -45.9730   11.6820   36.8160 O.2   207  LEU207     -0.2864
     95  CB       -48.3280   13.6400   36.2950 C.3   207  LEU207      0.0297
     96  CG       -48.1860   14.5260   35.0670 C.3   207  LEU207      0.0022
     97  CD1      -47.8190   15.7830   35.3550 C.3   207  LEU207      0.0001
     98  CD2      -47.3810   14.0700   34.0390 C.3   207  LEU207      0.0001
     99  N        -46.2010    9.9900   39.0140 N.3   209  ASP209     -0.1225
    100  CA       -45.7080    8.6510   38.9830 C.3   209  ASP209      0.1805
    101  C        -44.9400    8.3440   37.7950 C.2   209  ASP209      0.2598
    102  O        -44.2170    7.4100   37.7580 O.2   209  ASP209     -0.2718
    103  CB       -46.7980    7.6700   39.0090 C.3   209  ASP209      0.1424
    104  CG       -46.3110    6.2870   38.9890 C.2   209  ASP209      0.3668
    105  OD1      -45.3870    5.9620   39.7030 O.co2 209  ASP209     -0.2456
    106  OD2      -46.8050    5.4310   38.3060 O.co2 209  ASP209     -0.2456
    107  N        -45.1280    9.1330   36.7860 N.am  210  SER210     -0.1938
    108  CA       -44.7870    8.7370   35.5100 C.3   210  SER210      0.2055
    109  C        -43.5710    9.4440   35.2620 C.2   210  SER210      0.2642
    110  O        -42.8360    9.0640   34.4530 O.2   210  SER210     -0.2714
    111  CB       -45.7790    9.2660   34.5870 C.3   210  SER210      0.2130
    112  OG       -45.5020   10.5800   34.5450 O.3   210  SER210     -0.2179
    113  N        -43.3280   10.4830   35.9820 N.am  211  ILE211     -0.1977
    114  CA       -42.0490   11.0550   35.9390 C.3   211  ILE211      0.1596
    115  C        -41.1550   10.4210   36.9110 C.2   211  ILE211      0.2287
    116  O        -40.0400   10.2290   36.6470 O.2   211  ILE211     -0.2864
    117  CB       -42.1810   12.4840   36.2300 C.3   211  ILE211      0.0276
    118  CG1      -43.1280   13.1240   35.2950 C.3   211  ILE211      0.0022
    119  CG2      -40.9890   13.1680   36.0480 C.3   211  ILE211      0.0022
    120  CD1      -42.5940   13.2770   34.0850 C.3   211  ILE211      0.0001
    121  N        -39.1950    7.4570   35.4750 N.3   214  ASN214     -0.1240
    122  CA       -39.1370    7.4030   34.0790 C.3   214  ASN214      0.1653
    123  C        -37.7540    7.3320   33.8250 C.2   214  ASN214      0.2266
    124  O        -36.9680    7.7550   34.5830 O.2   214  ASN214     -0.2867
    125  CB       -39.6450    8.6660   33.5100 C.3   214  ASN214      0.1155
    126  CG       -39.4700    8.7720   32.0610 C.2   214  ASN214      0.2627
    127  OD1      -38.4020    8.6970   31.5680 O.2   214  ASN214     -0.2716
    128  ND2      -40.5160    8.9940   31.3790 N.am  214  ASN214     -0.0877
    129  N        -35.6480    8.1510   32.2550 N.3   216  TRP216     -0.1241
    130  CA       -34.6690    9.1160   31.8510 C.3   216  TRP216      0.1605
    131  C        -34.2060    9.7700   33.0170 C.2   216  TRP216      0.2264
    132  O        -33.3410   10.5650   32.9700 O.2   216  TRP216     -0.2867
    133  CB       -35.2580   10.1610   31.0020 C.3   216  TRP216      0.0550
    134  CG       -34.7630   10.1500   29.6630 C.ar  216  TRP216      0.0003
    135  CD1      -33.5650   10.5290   29.2190 C.ar  216  TRP216      0.0946
    136  CD2      -35.4600    9.7310   28.5800 C.ar  216  TRP216      0.0152
    137  NE1      -33.4800   10.3790   27.8640 N.ar  216  TRP216     -0.2442
    138  CE2      -34.6640    9.8640   27.4780 C.ar  216  TRP216      0.0810
    139  CE3      -36.6940    9.2430   28.4280 C.ar  216  TRP216      0.0012
    140  CZ2      -35.0670    9.5670   26.3190 C.ar  216  TRP216      0.0191
    141  CZ3      -37.0690    8.9380   27.3190 C.ar  216  TRP216      0.0001
    142  CH2      -36.2840    9.0690   26.2490 C.ar  216  TRP216      0.0015
@<TRIPOS>BOND
     1    31    30    1
     2    30    29    1
     3    29    28    1
     4    53    51    1
     5    27    28    1
     6    27    24    1
     7    26    25    2
     8    25    24    1
     9    51    50    1
    10    24    23    1
    11    50    52    1
    12    50    47    1
    13    49    48    2
    14    48    47    1
    15    47    46    1
    16    46    34   am
    17    23    14   am
    18    32    33    1
    19   142   140   ar
    20   142   141   ar
    21   140   138   ar
    22    34    33    1
    23    34    35    2
    24    14    15    2
    25    14    13    1
    26    33    36    1
    27     4     3    2
    28   141   139   ar
    29    12    13    1
    30   138   137   ar
    31   138   136   ar
    32    54    55    1
    33     3     2    1
    34   137   135   ar
    35    13    16    1
    36    36    37    1
    37    58    55    1
    38    58    59    1
    39   139   136   ar
    40    38    37   ar
    41    38    40   ar
    42   136   134   ar
    43    55    56    1
    44    56    57    2
    45    16    17    1
    46    37    39   ar
    47     5     2    1
    48     5     6    2
    49     2     1    1
    50    59    61   ar
    51    59    60   ar
    52   135   134   ar
    53    61    63   ar
    54    40    41   ar
    55    60    62   ar
    56   134   133    1
    57    63    64   ar
    58    17    18    1
    59    62    64   ar
    60     7     6    1
    61     7     8    1
    62    39    41   ar
    63    39    42   ar
    64    41    43   ar
    65    10     9    1
    66    18    19    1
    67   133   130    1
    68    42    44   ar
    69     8     9    2
    70   128   126   am
    71   127   126    2
    72     9    11    1
    73    43    45   ar
    74    19    20    2
    75   130   129    1
    76   130   131    1
    77   126   125    1
    78    21    20    1
    79    44    45   ar
    80    20    22    1
    81   132   131    2
    82   125   122    1
    83    81    79   ar
    84   123   122    1
    85   123   124    2
    86    98    96    1
    87   122   121    1
    88   120   118    1
    89   110   109    2
    90   112   111    1
    91    80    79   ar
    92    79    78    1
    93   111   108    1
    94    96    97    1
    95    96    95    1
    96   109   108    1
    97   109   113   am
    98   118   117    1
    99   108   107    1
   100    90    89    1
   101    78    77    1
   102   114   113    1
   103   114   117    1
   104   114   115    1
   105    69    70    1
   106    69    66    1
   107   119   117    1
   108    65    66    1
   109    95    92    1
   110    92    91    1
   111    92    93    1
   112    70    71    1
   113    72    71    1
   114   116   115    2
   115   107   101   am
   116    94    93    2
   117    66    67    1
   118    88    89    1
   119    88    87    1
   120    77    74    1
   121    85    84    2
   122    86    87    1
   123    86    83    1
   124    91    84   am
   125    76    75    2
   126    84    83    1
   127   102   101    2
   128   101   100    1
   129    68    67    2
   130    74    75    1
   131    74    73    1
   132    83    82    1
   133   106   104   ar
   134   100   103    1
   135   100    99    1
   136   104   103    1
   137   104   105   ar
