@<TRIPOS>MOLECULE
tmp/2g87B09.pdb
 77 71 0 0 0
SMALL
GASTEIGER

@<TRIPOS>ATOM
      1  N         64.0130   19.1780    3.8490 N.3   307  ILE307     -0.1245
      2  CA        63.5650   19.6540    5.1580 C.3   307  ILE307      0.1561
      3  C         64.0010   18.6680    6.2150 C.2   307  ILE307      0.2260
      4  O         64.4690   19.0690    7.2760 O.2   307  ILE307     -0.2867
      5  CB        62.0250   19.7630    5.2330 C.3   307  ILE307      0.0252
      6  CG1       61.5270   21.0050    4.4830 C.3   307  ILE307      0.0019
      7  CG2       61.5870   19.8110    6.6770 C.3   307  ILE307      0.0019
      8  CD1       59.9990   21.0890    4.3550 C.3   307  ILE307      0.0001
      9  N         69.3870   20.3850    8.3710 N.3   311  LYS311     -0.1245
     10  CA        69.1790   21.2200    9.5570 C.3   311  LYS311      0.1561
     11  C         69.1800   22.6860    9.2080 C.2   311  LYS311      0.2260
     12  O         68.2590   23.4090    9.5460 O.2   311  LYS311     -0.2867
     13  CB        70.2930   20.9380   10.5740 C.3   311  LYS311      0.0271
     14  CG        70.2950   21.8100   11.8380 C.3   311  LYS311      0.0035
     15  CD        69.6720   21.0910   13.0370 C.3   311  LYS311      0.0206
     16  CE        70.2210   21.6280   14.3710 C.3   311  LYS311      0.1093
     17  NZ        71.6760   21.3160   14.6100 N.3   311  LYS311     -0.1314
     18  N         66.2390   23.5540    7.2930 N.3   314  ARG314     -0.1231
     19  CA        65.1250   23.3100    8.2020 C.3   314  ARG314      0.1694
     20  C         64.9060   24.5020    9.1580 C.2   314  ARG314      0.2592
     21  O         63.8440   25.1280    9.1110 O.2   314  ARG314     -0.2718
     22  CB        65.3840   22.0150    8.9980 C.3   314  ARG314      0.0321
     23  CG        64.1410   21.4070    9.6880 C.3   314  ARG314      0.0489
     24  CD        64.5350   20.3690   10.7320 C.3   314  ARG314      0.2205
     25  NE        65.4370   19.3620   10.1980 N.pl3 314  ARG314     -0.0865
     26  CZ        66.4960   18.9100   10.8520 C.cat 314  ARG314      0.5346
     27  NH1       66.7820   19.3830   12.0550 N.pl3 314  ARG314      0.1354
     28  NH2       67.2580   17.9740   10.3130 N.pl3 314  ARG314      0.1354
     29  N         65.9020   24.8090    9.9980 N.am  315  ASN315     -0.1974
     30  CA        65.8260   25.8920   10.9940 C.3   315  ASN315      0.1688
     31  C         65.5720   27.2460   10.3490 C.2   315  ASN315      0.2292
     32  O         64.8100   28.0620   10.8760 O.2   315  ASN315     -0.2864
     33  CB        67.1260   25.9320   11.8260 C.3   315  ASN315      0.1181
     34  CG        67.2220   24.7760   12.8260 C.2   315  ASN315      0.2629
     35  OD1       68.2890   24.4620   13.3240 O.2   315  ASN315     -0.2716
     36  ND2       66.0910   24.1530   13.1250 N.am  315  ASN315     -0.0877
     37  N         63.9500   27.7700    7.6580 N.3   317  MET317     -0.1230
     38  CA        62.5710   27.7560    7.1190 C.3   317  MET317      0.1702
     39  C         61.5360   28.0710    8.2080 C.2   317  MET317      0.2592
     40  O         60.5860   28.8160    7.9560 O.2   317  MET317     -0.2718
     41  CB        62.2460   26.3830    6.5180 C.3   317  MET317      0.0401
     42  CG        60.7520   26.0650    6.4370 C.3   317  MET317      0.0596
     43  SD        60.3690   24.4080    5.7640 S.3   317  MET317     -0.1393
     44  CE        60.3790   23.3800    7.2540 C.3   317  MET317      0.0692
     45  N         61.7100   27.4820    9.3930 N.am  318  VAL318     -0.1980
     46  CA        60.8150   27.7030   10.5270 C.3   318  VAL318      0.1595
     47  C         60.9290   29.1390   10.9780 C.2   318  VAL318      0.2287
     48  O         59.9990   29.6770   11.5750 O.2   318  VAL318     -0.2864
     49  CB        61.1800   26.7980   11.7120 C.3   318  VAL318      0.0276
     50  CG1       62.6420   26.9390   12.0340 C.3   318  VAL318      0.0022
     51  CG2       60.3590   27.1810   12.9300 C.3   318  VAL318      0.0022
     52  N         58.5320   30.7680    8.8640 N.3   321  LEU321     -0.1231
     53  CA        57.1590   30.4430    9.2360 C.3   321  LEU321      0.1693
     54  C         56.7600   31.1440   10.5220 C.2   321  LEU321      0.2592
     55  O         55.5730   31.3960   10.7380 O.2   321  LEU321     -0.2718
     56  CB        56.9910   28.9260    9.3950 C.3   321  LEU321      0.0284
     57  CG        57.1610   28.0440    8.1500 C.3   321  LEU321      0.0019
     58  CD1       57.1130   26.5910    8.5810 C.3   321  LEU321      0.0001
     59  CD2       56.0680   28.3300    7.1150 C.3   321  LEU321      0.0001
     60  N         57.7260   31.4520   11.3780 N.am  322  CYS322     -0.1970
     61  CA        57.3940   32.1230   12.6130 C.3   322  CYS322      0.1712
     62  C         57.3750   33.5630   12.3510 C.2   322  CYS322      0.2296
     63  O         57.6550   34.3600   13.2350 O.2   322  CYS322     -0.2864
     64  CB        58.3270   31.7470   13.7360 C.3   322  CYS322      0.0983
     65  SG        58.0790   30.0030   14.0650 S.3   322  CYS322     -0.0798
     66  N         63.8960   25.6610   18.6840 N.3   329  GLY329     -0.1210
     67  CA        64.7500   24.5410   18.3220 C.3   329  GLY329      0.1956
     68  C         66.1610   24.7640   18.8660 C.2   329  GLY329      0.2611
     69  O         66.3320   25.1730   20.0240 O.2   329  GLY329     -0.2717
     70  N         67.1790   24.5070   18.0470 N.am  330  ASP330     -0.1973
     71  CA        68.5540   24.7180   18.4890 C.3   330  ASP330      0.1709
     72  C         69.3390   25.3430   17.3720 C.2   330  ASP330      0.2293
     73  O         70.4760   24.9330   17.0930 O.2   330  ASP330     -0.2864
     74  CB        69.1940   23.4040   18.9190 C.3   330  ASP330      0.1436
     75  CG        69.8200   23.5070   20.2790 C.2   330  ASP330      0.3671
     76  OD1       70.6700   24.3990   20.4600 O.co2 330  ASP330     -0.2456
     77  OD2       69.4540   22.7130   21.1650 O.co2 330  ASP330     -0.2456
@<TRIPOS>BOND
     1     1     2    1
     2     8     6    1
     3     6     5    1
     4     2     5    1
     5     2     3    1
     6     5     7    1
     7    43    42    1
     8    43    44    1
     9     3     4    2
    10    42    41    1
    11    41    38    1
    12    59    57    1
    13    38    37    1
    14    38    39    1
    15    18    19    1
    16    40    39    2
    17    57    58    1
    18    57    56    1
    19    19    22    1
    20    19    20    1
    21    39    45   am
    22     9    10    1
    23    52    53    1
    24    22    23    1
    25    21    20    2
    26    20    29   am
    27    11    12    2
    28    11    10    1
    29    53    56    1
    30    53    54    1
    31    45    46    1
    32    10    13    1
    33    23    24    1
    34    29    30    1
    35    25    24    1
    36    25    26    2
    37    28    26    1
    38    31    32    2
    39    31    30    1
    40    54    55    2
    41    54    60   am
    42    46    47    1
    43    46    49    1
    44    13    14    1
    45    26    27    1
    46    47    48    2
    47    30    33    1
    48    60    61    1
    49    49    50    1
    50    49    51    1
    51    33    34    1
    52    14    15    1
    53    62    61    1
    54    62    63    2
    55    61    64    1
    56    34    36   am
    57    34    35    2
    58    15    16    1
    59    64    65    1
    60    16    17    1
    61    73    72    2
    62    72    71    1
    63    70    71    1
    64    70    68   am
    65    67    66    1
    66    67    68    1
    67    71    74    1
    68    68    69    2
    69    74    75    1
    70    75    76   ar
    71    75    77   ar
