@<TRIPOS>MOLECULE
tmp/2g88A00.pdb
 118 112 0 0 0
SMALL
GASTEIGER

@<TRIPOS>ATOM
      1  N         33.7380   90.1830    7.4240 N.3    70  GLU70      -0.1231
      2  CA        33.4380   88.9510    8.1510 C.3    70  GLU70       0.1699
      3  C         32.3300   89.2140    9.1690 C.2    70  GLU70       0.2593
      4  O         32.0550   90.3680    9.4990 O.2    70  GLU70      -0.2718
      5  CB        34.6970   88.4500    8.8630 C.3    70  GLU70       0.0402
      6  CG        34.5610   87.0850    9.5270 C.3    70  GLU70       0.1161
      7  CD        35.3110   85.9940    8.7860 C.2    70  GLU70       0.3649
      8  OE1       36.5320   86.1540    8.5750 O.co2  70  GLU70      -0.2457
      9  OE2       34.6870   84.9750    8.4210 O.co2  70  GLU70      -0.2457
     10  N         31.6960   88.1410    9.6390 N.am   71  SER71      -0.1938
     11  CA        30.6020   88.1700   10.6230 C.3    71  SER71       0.2055
     12  C         29.6740   89.3970   10.6200 C.2    71  SER71       0.2644
     13  O         29.4200   90.0160   11.6620 O.2    71  SER71      -0.2714
     14  CB        31.1720   87.9530   12.0320 C.3    71  SER71       0.2130
     15  OG        32.2390   88.8410   12.3040 O.3    71  SER71      -0.2179
     16  N         29.1490   89.7290    9.4480 N.am   72  SER72      -0.1935
     17  CA        28.2600   90.8700    9.3290 C.3    72  SER72       0.2055
     18  C         26.8090   90.4130    9.2600 C.2    72  SER72       0.2644
     19  O         25.9450   90.9500    9.9500 O.2    72  SER72      -0.2714
     20  CB        28.6360   91.6830    8.0960 C.3    72  SER72       0.2130
     21  OG        29.9740   92.1390    8.2020 O.3    72  SER72      -0.2179
     22  N         26.5400   89.4150    8.4330 N.am   73  GLY73      -0.1939
     23  CA        25.1870   88.9240    8.3480 C.3    73  GLY73       0.2014
     24  C         24.8720   88.2990    7.0140 C.2    73  GLY73       0.2639
     25  O         23.7620   87.8160    6.8120 O.2    73  GLY73      -0.2714
     26  N         25.8320   88.2960    6.0980 N.am   74  LYS74      -0.1963
     27  CA        25.6030   87.7220    4.7800 C.3    74  LYS74       0.1728
     28  C         25.0340   86.2930    4.7740 C.2    74  LYS74       0.2617
     29  O         23.8630   86.0690    4.4260 O.2    74  LYS74      -0.2715
     30  CB        26.8980   87.7800    3.9810 C.3    74  LYS74       0.0311
     31  CG        27.4390   89.1850    3.8740 C.3    74  LYS74       0.0038
     32  CD        28.7720   89.2450    3.1410 C.3    74  LYS74       0.0206
     33  CE        29.9290   88.7990    4.0130 C.3    74  LYS74       0.1093
     34  NZ        29.8650   87.3630    4.3680 N.3    74  LYS74      -0.1314
     35  N         25.8470   85.3200    5.1620 N.am   75  THR75      -0.1937
     36  CA        25.3650   83.9450    5.1450 C.3    75  THR75       0.2028
     37  C         23.9350   83.8200    5.6900 C.2    75  THR75       0.2642
     38  O         23.0650   83.2870    5.0110 O.2    75  THR75      -0.2714
     39  CB        26.3370   82.9960    5.8990 C.3    75  THR75       0.1808
     40  OG1       27.6330   83.0700    5.2860 O.3    75  THR75      -0.2208
     41  CG2       25.8400   81.5430    5.8310 C.3    75  THR75       0.0379
     42  N         23.6890   84.3190    6.8970 N.am   76  THR76      -0.1950
     43  CA        22.3550   84.2520    7.4730 C.3    76  THR76       0.1897
     44  C         21.3780   84.6420    6.3930 C.2    76  THR76       0.2313
     45  O         20.5920   83.8180    5.9230 O.2    76  THR76      -0.2863
     46  CB        22.1790   85.2390    8.6310 C.3    76  THR76       0.1794
     47  OG1       22.5160   84.6000    9.8640 O.3    76  THR76      -0.2208
     48  CG2       20.7450   85.7450    8.6950 C.3    76  THR76       0.0378
     49  N         34.3890   77.2790    1.7920 N.3    98  GLU98      -0.1245
     50  CA        34.8740   77.9080    3.0040 C.3    98  GLU98       0.1567
     51  C         34.8970   76.8420    4.0980 C.2    98  GLU98       0.2260
     52  O         35.6290   76.9450    5.0830 O.2    98  GLU98      -0.2867
     53  CB        33.9420   79.0470    3.3860 C.3    98  GLU98       0.0388
     54  CG        34.0200   80.2270    2.4490 C.3    98  GLU98       0.1160
     55  CD        35.1370   81.1730    2.8170 C.2    98  GLU98       0.3649
     56  OE1       35.0490   81.8040    3.8920 O.co2  98  GLU98      -0.2457
     57  OE2       36.1060   81.2850    2.0380 O.co2  98  GLU98      -0.2457
     58  N         27.2190   75.5240    9.7170 N.3   102  ASP102     -0.1239
     59  CA        26.8890   74.7280   10.9430 C.3   102  ASP102      0.1674
     60  C         25.4430   74.3690   10.6900 C.2   102  ASP102      0.2266
     61  O         24.5390   75.1260   11.0250 O.2   102  ASP102     -0.2867
     62  CB        27.0500   75.4960   12.2940 C.3   102  ASP102      0.1410
     63  CG        26.5720   74.7160   13.5660 C.2   102  ASP102      0.3668
     64  OD1       26.6850   73.4730   13.6490 O.co2 102  ASP102     -0.2456
     65  OD2       26.1330   75.3910   14.5310 O.co2 102  ASP102     -0.2456
     66  N         22.7210   75.5420   12.8150 N.3   105  TYR105     -0.1241
     67  CA        22.3230   76.9600   12.9020 C.3   105  TYR105      0.1605
     68  C         21.3410   77.1440   11.7630 C.2   105  TYR105      0.2264
     69  O         20.3950   77.9320   11.8410 O.2   105  TYR105     -0.2867
     70  CB        23.5050   77.8810   12.6620 C.3   105  TYR105      0.0534
     71  CG        23.1590   79.3460   12.4610 C.ar  105  TYR105     -0.0201
     72  CD1       22.5250   80.0850   13.4620 C.ar  105  TYR105     -0.0009
     73  CD2       23.5900   80.0320   11.3120 C.ar  105  TYR105     -0.0009
     74  CE1       22.3420   81.4760   13.3330 C.ar  105  TYR105      0.0417
     75  CE2       23.4140   81.4260   11.1770 C.ar  105  TYR105      0.0417
     76  CZ        22.7960   82.1380   12.1950 C.ar  105  TYR105      0.1957
     77  OH        22.6790   83.5100   12.0980 O.3   105  TYR105     -0.2866
     78  N         33.3670   88.1230    0.7340 N.3   190  GLN190     -0.1245
     79  CA        34.0420   88.5960    1.9640 C.3   190  GLN190      0.1566
     80  C         34.9440   89.8520    1.8730 C.2   190  GLN190      0.2260
     81  O         36.0930   89.7870    2.2890 O.2   190  GLN190     -0.2867
     82  CB        34.9280   87.4700    2.4980 C.3   190  GLN190      0.0367
     83  CG        34.2460   86.1650    2.7870 C.3   190  GLN190      0.0905
     84  CD        33.3750   86.2460    4.0110 C.2   190  GLN190      0.2608
     85  OE1       32.1660   86.4440    3.9170 O.2   190  GLN190     -0.2717
     86  NE2       33.9900   86.1090    5.1780 N.am  190  GLN190     -0.0878
     87  N         22.9150   91.5000   17.0950 N.3   224  ASN224     -0.1240
     88  CA        23.7530   92.4230   16.3490 C.3   224  ASN224      0.1653
     89  C         22.8640   93.1430   15.3680 C.2   224  ASN224      0.2266
     90  O         22.0140   92.5180   14.7190 O.2   224  ASN224     -0.2867
     91  CB        24.8470   91.6870   15.5770 C.3   224  ASN224      0.1155
     92  CG        26.0680   91.4070   16.4210 C.2   224  ASN224      0.2627
     93  OD1       26.5850   92.2950   17.0990 O.2   224  ASN224     -0.2716
     94  ND2       26.5470   90.1730   16.3740 N.am  224  ASN224     -0.0877
     95  N         19.7080   90.2310   14.0330 N.3   246  ILE246     -0.1245
     96  CA        20.0220   88.8060   13.8440 C.3   246  ILE246      0.1561
     97  C         20.4530   88.3490   15.2130 C.2   246  ILE246      0.2260
     98  O         21.5840   88.5980   15.5970 O.2   246  ILE246     -0.2867
     99  CB        21.2400   88.5280   12.9390 C.3   246  ILE246      0.0252
    100  CG1       20.9250   88.8420   11.4870 C.3   246  ILE246      0.0019
    101  CG2       21.6070   87.0540   13.0270 C.3   246  ILE246      0.0019
    102  CD1       22.1280   88.6890   10.5820 C.3   246  ILE246      0.0001
    103  N         21.9760   86.1000   17.9860 N.3   248  TYR248     -0.1227
    104  CA        22.9260   85.0060   18.0200 C.3   248  TYR248      0.1736
    105  C         22.1130   83.7350   18.1240 C.2   248  TYR248      0.2596
    106  O         21.1640   83.6690   18.9010 O.2   248  TYR248     -0.2718
    107  CB        23.8560   85.1560   19.2240 C.3   248  TYR248      0.0548
    108  CG        24.8610   86.2830   19.0720 C.ar  248  TYR248     -0.0200
    109  CD1       25.9580   86.1500   18.2250 C.ar  248  TYR248     -0.0009
    110  CD2       24.6980   87.4930   19.7500 C.ar  248  TYR248     -0.0009
    111  CE1       26.8670   87.1900   18.0560 C.ar  248  TYR248      0.0417
    112  CE2       25.5990   88.5400   19.5870 C.ar  248  TYR248      0.0417
    113  CZ        26.6820   88.3820   18.7370 C.ar  248  TYR248      0.1957
    114  OH        27.5840   89.4110   18.5690 O.3   248  TYR248     -0.2866
    115  N         22.4570   82.7450   17.3100 N.am  249  GLY249     -0.1957
    116  CA        21.7300   81.4900   17.3360 C.3   249  GLY249      0.1869
    117  C         20.2770   81.5680   16.8890 C.2   249  GLY249      0.2309
    118  O         19.7790   80.6340   16.2650 O.2   249  GLY249     -0.2863
@<TRIPOS>BOND
     1    78    79    1
     2    49    50    1
     3    80    79    1
     4    80    81    2
     5    79    82    1
     6    57    55   ar
     7    54    55    1
     8    54    53    1
     9    82    83    1
    10    83    84    1
    11    55    56   ar
    12    50    53    1
    13    50    51    1
    14    32    31    1
    15    32    33    1
    16    31    30    1
    17    85    84    2
    18    30    27    1
    19    84    86   am
    20    33    34    1
    21    51    52    2
    22    29    28    2
    23    28    27    1
    24    28    35   am
    25    27    26    1
    26    38    37    2
    27    36    35    1
    28    36    37    1
    29    36    39    1
    30    40    39    1
    31    37    42   am
    32    41    39    1
    33    45    44    2
    34    26    24   am
    35    44    43    1
    36    25    24    2
    37    42    43    1
    38    24    23    1
    39     1     2    1
    40    43    46    1
    41    20    21    1
    42    20    17    1
    43     2     5    1
    44     2     3    1
    45    23    22    1
    46     9     7   ar
    47    22    18   am
    48     8     7   ar
    49    46    48    1
    50    46    47    1
    51     7     6    1
    52     5     6    1
    53     3     4    2
    54     3    10   am
    55    18    17    1
    56    18    19    2
    57    17    16    1
    58    16    12   am
    59    10    11    1
    60    58    59    1
    61   102   100    1
    62    12    11    1
    63    12    13    2
    64    11    14    1
    65    60    59    1
    66    60    61    2
    67    59    62    1
    68    75    73   ar
    69    75    76   ar
    70    73    71   ar
    71   100    99    1
    72    68    69    2
    73    68    67    1
    74    14    15    1
    75    77    76    1
    76    76    74   ar
    77    62    63    1
    78    71    70    1
    79    71    72   ar
    80    70    67    1
    81    66    67    1
    82    99   101    1
    83    99    96    1
    84    74    72   ar
    85    63    64   ar
    86    63    65   ar
    87    96    95    1
    88    96    97    1
    89    90    89    2
    90    97    98    2
    91    89    88    1
    92    91    88    1
    93    91    92    1
    94   118   117    2
    95    88    87    1
    96    94    92   am
    97    92    93    2
    98   117   116    1
    99   115   116    1
   100   115   105   am
   101   103   104    1
   102   104   105    1
   103   104   107    1
   104   111   109   ar
   105   111   113   ar
   106   105   106    2
   107   109   108   ar
   108   114   113    1
   109   113   112   ar
   110   108   107    1
   111   108   110   ar
   112   112   110   ar
