@<TRIPOS>MOLECULE
tmp/2g88A01.pdb
 148 145 0 0 0
SMALL
GASTEIGER

@<TRIPOS>ATOM
      1  N         14.9610  107.1420   -9.6740 N.3    31  LEU31      -0.1231
      2  CA        15.1160  106.5820   -8.3490 C.3    31  LEU31       0.1693
      3  C         13.7800  106.3720   -7.6210 C.2    31  LEU31       0.2592
      4  O         13.4830  105.2580   -7.1970 O.2    31  LEU31      -0.2718
      5  CB        16.0440  107.4730   -7.5420 C.3    31  LEU31       0.0284
      6  CG        17.4920  107.3860   -8.0150 C.3    31  LEU31       0.0019
      7  CD1       18.3410  108.5170   -7.4190 C.3    31  LEU31       0.0001
      8  CD2       18.0330  106.0300   -7.6050 C.3    31  LEU31       0.0001
      9  N         12.9680  107.4180   -7.4830 N.am   32  GLY32      -0.1957
     10  CA        11.6900  107.2560   -6.8010 C.3    32  GLY32       0.1869
     11  C         10.5200  106.8190   -7.6740 C.2    32  GLY32       0.2309
     12  O          9.4160  107.3340   -7.5070 O.2    32  GLY32      -0.2863
     13  N         12.0500   94.3080    6.3290 N.3    48  SER48      -0.1217
     14  CA        12.8490   95.5010    6.0670 C.3    48  SER48       0.1889
     15  C         13.7000   95.4260    4.7900 C.2    48  SER48       0.2288
     16  O         13.6580   96.3380    3.9640 O.2    48  SER48      -0.2866
     17  CB        13.7370   95.7880    7.2770 C.3    48  SER48       0.2089
     18  OG        14.2690   97.0940    7.2230 O.3    48  SER48      -0.2183
     19  N         11.0080   95.1960    1.2590 N.3    51  VAL51      -0.1231
     20  CA        10.5340   96.4040    0.5990 C.3    51  VAL51       0.1692
     21  C         11.7290   97.2770    0.1940 C.2    51  VAL51       0.2591
     22  O         11.6150   98.2110   -0.6060 O.2    51  VAL51      -0.2718
     23  CB         9.5970   97.1940    1.5300 C.3    51  VAL51       0.0266
     24  CG1        8.7230   96.2270    2.3120 C.3    51  VAL51       0.0020
     25  CG2       10.4000   98.0760    2.4610 C.3    51  VAL51       0.0020
     26  N         12.8820   96.9690    0.7660 N.am   52  ALA52      -0.1980
     27  CA        14.0870   97.7140    0.4550 C.3    52  ALA52       0.1597
     28  C         14.4950   97.2830   -0.9420 C.2    52  ALA52       0.2287
     29  O         14.9820   98.0730   -1.7480 O.2    52  ALA52      -0.2864
     30  CB        15.1760   97.3830    1.4630 C.3    52  ALA52       0.0319
     31  N         17.4460  101.6060   -7.2160 N.3   238  PRO238     -0.2102
     32  CA        18.4750  101.1690   -6.2820 C.3   238  PRO238      0.1504
     33  C         18.7210  102.1450   -5.1580 C.2   238  PRO238      0.2576
     34  O         17.9420  103.0620   -4.9250 O.2   238  PRO238     -0.2718
     35  CB        19.6890  101.0480   -7.1830 C.3   238  PRO238      0.0282
     36  CG        19.5400  102.2910   -8.0220 C.3   238  PRO238      0.0208
     37  CD        18.0610  102.2750   -8.3800 C.3   238  PRO238      0.0893
     38  N         19.8470  101.9160   -4.4910 N.am  239  PHE239     -0.1963
     39  CA        20.3480  102.7200   -3.3900 C.3   239  PHE239      0.1771
     40  C         19.4390  102.7300   -2.1830 C.2   239  PHE239      0.2619
     41  O         19.4930  103.6560   -1.3800 O.2   239  PHE239     -0.2715
     42  CB        20.6270  104.1630   -3.8550 C.3   239  PHE239      0.0574
     43  CG        21.5230  104.2590   -5.0680 C.ar  239  PHE239     -0.0200
     44  CD1       22.8000  103.7350   -5.0510 C.ar  239  PHE239     -0.0042
     45  CD2       21.0740  104.8690   -6.2310 C.ar  239  PHE239     -0.0042
     46  CE1       23.6180  103.8170   -6.1770 C.ar  239  PHE239     -0.0003
     47  CE2       21.8860  104.9560   -7.3600 C.ar  239  PHE239     -0.0003
     48  CZ        23.1580  104.4280   -7.3300 C.ar  239  PHE239     -0.0000
     49  N         18.5920  101.7180   -2.0420 N.am  240  LYS240     -0.1963
     50  CA        17.7330  101.7020   -0.8650 C.3   240  LYS240      0.1728
     51  C         18.4920  101.0760    0.3010 C.2   240  LYS240      0.2616
     52  O         19.5580  100.4760    0.1140 O.2   240  LYS240     -0.2715
     53  CB        16.4050  100.9930   -1.1430 C.3   240  LYS240      0.0311
     54  CG        15.4940  101.8240   -2.0330 C.3   240  LYS240      0.0038
     55  CD        14.0220  101.5800   -1.7670 C.3   240  LYS240      0.0206
     56  CE        13.1640  102.1020   -2.9160 C.3   240  LYS240      0.1093
     57  NZ        13.4640  103.5270   -3.2170 N.3   240  LYS240     -0.1314
     58  N         17.9410  101.2430    1.5000 N.am  241  GLN241     -0.1963
     59  CA        18.5680  100.7730    2.7340 C.3   241  GLN241      0.1733
     60  C         17.6120  100.1410    3.7420 C.2   241  GLN241      0.2616
     61  O         16.5470  100.6870    4.0210 O.2   241  GLN241     -0.2715
     62  CB        19.2260  101.9580    3.4590 C.3   241  GLN241      0.0408
     63  CG        20.5220  102.4890    2.8830 C.3   241  GLN241      0.0908
     64  CD        20.5740  104.0050    2.8920 C.2   241  GLN241      0.2608
     65  OE1       19.6880  104.6520    2.3670 O.2   241  GLN241     -0.2717
     66  NE2       21.6180  104.5730    3.4810 N.am  241  GLN241     -0.0878
     67  N         18.0040   99.0090    4.3130 N.am  242  ALA242     -0.1963
     68  CA        17.1970   98.3870    5.3560 C.3   242  ALA242      0.1728
     69  C         18.1570   97.9720    6.4770 C.2   242  ALA242      0.2616
     70  O         19.2730   97.5320    6.2240 O.2   242  ALA242     -0.2715
     71  CB        16.4400   97.1890    4.8200 C.3   242  ALA242      0.0334
     72  N         17.7350   98.1580    7.7170 N.am  243  GLU243     -0.1977
     73  CA        18.5520   97.8050    8.8730 C.3   243  GLU243      0.1602
     74  C         17.7590   96.6490    9.4960 C.2   243  GLU243      0.2287
     75  O         16.5550   96.5520    9.2530 O.2   243  GLU243     -0.2864
     76  CB        18.6230   99.0200    9.8450 C.3   243  GLU243      0.0415
     77  CG        19.9690   99.8060    9.8940 C.3   243  GLU243      0.1163
     78  CD        19.8190  101.2990   10.3080 C.2   243  GLU243      0.3649
     79  OE1       20.5900  101.7860   11.1650 O.co2 243  GLU243     -0.2457
     80  OE2       18.9360  102.0000    9.7710 O.co2 243  GLU243     -0.2457
     81  N          9.7070   98.5820   12.0330 N.3   261  MET261     -0.1245
     82  CA         9.1340   98.6380   10.7010 C.3   261  MET261      0.1570
     83  C          7.6380   98.9470   10.7550 C.2   261  MET261      0.2261
     84  O          7.1140   99.6790    9.9190 O.2   261  MET261     -0.2867
     85  CB         9.4010   97.2930   10.0310 C.3   261  MET261      0.0387
     86  CG         8.8340   97.1030    8.6600 C.3   261  MET261      0.0595
     87  SD         9.5610   98.1430    7.4350 S.3   261  MET261     -0.1393
     88  CE         8.1790   99.2680    7.2380 C.3   261  MET261      0.0692
     89  N          7.2820  102.7950   12.0210 N.3   264  GLU264     -0.1231
     90  CA         7.9080  103.6700   11.0380 C.3   264  GLU264      0.1699
     91  C          6.8720  103.8800    9.8720 C.2   264  GLU264      0.2592
     92  O          7.1830  104.5420    8.8820 O.2   264  GLU264     -0.2718
     93  CB         9.3230  103.0660   10.6060 C.3   264  GLU264      0.0402
     94  CG        10.7260  103.7130   11.1690 C.3   264  GLU264      0.1161
     95  CD        12.0370  102.8420   11.4300 C.2   264  GLU264      0.3649
     96  OE1       12.7710  102.4620   10.4790 O.co2 264  GLU264     -0.2457
     97  OE2       12.4230  102.6560   12.6290 O.co2 264  GLU264     -0.2457
     98  N          5.6230  103.4010   10.0550 N.am  265  HIS265     -0.1976
     99  CA         4.5320  103.5670    9.0590 C.3   265  HIS265      0.1656
    100  C          3.1020  103.7600    9.6280 C.2   265  HIS265      0.2291
    101  O          2.1150  103.8270    8.8740 O.2   265  HIS265     -0.2864
    102  CB         4.5270  102.4020    8.0620 C.3   265  HIS265      0.0771
    103  CG         4.9640  102.7900    6.6770 C.ar  265  HIS265      0.0820
    104  ND1        5.9390  102.0970    5.9870 N.ar  265  HIS265     -0.2267
    105  CD2        4.5610  103.7820    5.8530 C.ar  265  HIS265      0.1154
    106  CE1        6.1130  102.6490    4.8030 C.ar  265  HIS265      0.1986
    107  NE2        5.2910  103.6770    4.6900 N.ar  265  HIS265     -0.2212
    108  N          2.4500   99.2590    0.9660 N.3   311  LEU311     -0.1245
    109  CA         3.5740   99.4630    0.0810 C.3   311  LEU311      0.1561
    110  C          3.2730   98.2430   -0.7500 C.2   311  LEU311      0.2260
    111  O          2.9380   97.2130   -0.1730 O.2   311  LEU311     -0.2867
    112  CB         4.8740   99.2680    0.8500 C.3   311  LEU311      0.0270
    113  CG         4.9300   99.9950    2.1920 C.3   311  LEU311      0.0019
    114  CD1        6.0360   99.4230    3.0740 C.3   311  LEU311      0.0001
    115  CD2        5.1200  101.4780    1.9320 C.3   311  LEU311      0.0001
    116  N          7.4130  108.2430   -4.2660 N.3   328  PRO328     -0.2102
    117  CA         7.2740  107.5760   -2.9570 C.3   328  PRO328      0.1504
    118  C          6.5390  108.7380   -2.2450 C.2   328  PRO328      0.2576
    119  O          6.2600  109.7390   -2.9010 O.2   328  PRO328     -0.2718
    120  CB         8.7080  107.4510   -2.4540 C.3   328  PRO328      0.0282
    121  CG         9.4640  107.1930   -3.6770 C.3   328  PRO328      0.0208
    122  CD         8.8150  108.1440   -4.7290 C.3   328  PRO328      0.0893
    123  N          6.2360  108.6930   -0.9530 N.am  329  VAL329     -0.1966
    124  CA         5.5040  109.8520   -0.4410 C.3   329  VAL329      0.1727
    125  C          5.9810  110.6190    0.7980 C.2   329  VAL329      0.2616
    126  O          5.3710  111.6430    1.1390 O.2   329  VAL329     -0.2715
    127  CB         4.0210  109.4860   -0.2930 C.3   329  VAL329      0.0290
    128  CG1        3.2010  110.6520    0.2480 C.3   329  VAL329      0.0023
    129  CG2        3.4710  109.1110   -1.6710 C.3   329  VAL329      0.0023
    130  N          7.0480  110.1470    1.4590 N.am  330  ASP330     -0.1957
    131  CA         7.6020  110.8310    2.6420 C.3   330  ASP330      0.1840
    132  C          8.6580  110.1530    3.5650 C.2   330  ASP330      0.2622
    133  O          8.4890  109.0340    4.0550 O.2   330  ASP330     -0.2715
    134  CB         6.4450  111.3790    3.5250 C.3   330  ASP330      0.1450
    135  CG         5.5960  110.3050    4.1860 C.2   330  ASP330      0.3671
    136  OD1        6.0740  109.5920    5.1180 O.co2 330  ASP330     -0.2456
    137  OD2        4.4190  110.1620    3.8400 O.co2 330  ASP330     -0.2456
    138  N          9.7320  110.9280    3.7560 N.am  331  PHE331     -0.1974
    139  CA        10.9530  110.8160    4.6000 C.3   331  PHE331      0.1639
    140  C         11.6940  111.9310    3.8680 C.2   331  PHE331      0.2290
    141  O         11.3730  112.1310    2.6740 O.2   331  PHE331     -0.2864
    142  CB        11.8150  109.5020    4.5500 C.3   331  PHE331      0.0560
    143  CG        12.9590  109.4560    5.6340 C.ar  331  PHE331     -0.0200
    144  CD1       13.6720  108.2790    5.9280 C.ar  331  PHE331     -0.0042
    145  CD2       13.2680  110.5980    6.3860 C.ar  331  PHE331     -0.0042
    146  CE1       14.6860  108.2670    6.9350 C.ar  331  PHE331     -0.0003
    147  CE2       14.2720  110.5900    7.3830 C.ar  331  PHE331     -0.0003
    148  CZ        14.9660  109.4230    7.6660 C.ar  331  PHE331     -0.0000
@<TRIPOS>BOND
     1     1     2    1
     2    37    36    1
     3    37    31    1
     4     2     3    1
     5     2     5    1
     6    36    35    1
     7     6     8    1
     8     6     5    1
     9     6     7    1
    10    11    12    2
    11    11    10    1
    12     3     9   am
    13     3     4    2
    14     9    10    1
    15    47    48   ar
    16    47    45   ar
    17    48    46   ar
    18    31    32    1
    19    35    32    1
    20    32    33    1
    21    45    43   ar
    22    46    44   ar
    23    33    34    2
    24    33    38   am
    25    43    44   ar
    26    43    42    1
    27   122   116    1
    28   122   121    1
    29    38    39    1
    30   116   117    1
    31    42    39    1
    32   121   120    1
    33    39    40    1
    34    57    56    1
    35   117   120    1
    36   117   118    1
    37    56    55    1
    38   119   118    2
    39   118   123   am
    40    40    49   am
    41    40    41    2
    42    49    50    1
    43    54    55    1
    44    54    53    1
    45    29    28    2
    46   129   127    1
    47    53    50    1
    48   123   124    1
    49    28    27    1
    50    50    51    1
    51   110   111    2
    52   110   109    1
    53    22    21    2
    54   124   127    1
    55   124   125    1
    56   127   128    1
    57   109   112    1
    58   109   108    1
    59    52    51    2
    60    21    20    1
    61    21    26   am
    62    51    58   am
    63    27    26    1
    64    27    30    1
    65    20    19    1
    66    20    23    1
    67   125   126    2
    68   125   130   am
    69   112   113    1
    70   130   131    1
    71    58    59    1
    72    23    24    1
    73    23    25    1
    74   115   113    1
    75   113   114    1
    76    65    64    2
    77   131   134    1
    78   131   132    1
    79   141   140    2
    80    59    62    1
    81    59    60    1
    82    63    64    1
    83    63    62    1
    84    64    66   am
    85   134   135    1
    86   132   138   am
    87   132   133    2
    88    60    61    2
    89    60    67   am
    90   138   139    1
    91   137   135   ar
    92   140   139    1
    93    16    15    2
    94   135   136   ar
    95    67    68    1
    96   142   139    1
    97   142   143    1
    98   107   106   ar
    99   107   105   ar
   100    15    14    1
   101   106   104   ar
   102    71    68    1
   103    68    69    1
   104   143   144   ar
   105   143   145   ar
   106   105   103   ar
   107   144   146   ar
   108   104   103   ar
   109    14    13    1
   110    14    17    1
   111    70    69    2
   112   145   147   ar
   113    69    72   am
   114   103   102    1
   115   146   148   ar
   116    18    17    1
   117    88    87    1
   118   147   148   ar
   119    87    86    1
   120    72    73    1
   121   102    99    1
   122    86    85    1
   123    73    74    1
   124    73    76    1
   125   101   100    2
   126    92    91    2
   127    99   100    1
   128    99    98    1
   129    75    74    2
   130    80    78   ar
   131    76    77    1
   132    91    98   am
   133    91    90    1
   134    77    78    1
   135    84    83    2
   136    85    82    1
   137    78    79   ar
   138    96    95   ar
   139    93    90    1
   140    93    94    1
   141    82    83    1
   142    82    81    1
   143    90    89    1
   144    94    95    1
   145    95    97   ar
