@<TRIPOS>MOLECULE
tmp/2g8cA00.pdb
 80 71 0 0 0
SMALL
GASTEIGER

@<TRIPOS>ATOM
      1  N         10.9270  -13.6870   -0.5660 N.3   105  VAL105     -0.1245
      2  CA        10.7600  -12.3420   -0.0330 C.3   105  VAL105      0.1561
      3  C         11.0570  -12.3280    1.4750 C.2   105  VAL105      0.2260
      4  O         10.5380  -13.1390    2.2260 O.2   105  VAL105     -0.2867
      5  CB         9.3680  -11.8030   -0.3590 C.3   105  VAL105      0.0252
      6  CG1        8.2650  -12.6000    0.2900 C.3   105  VAL105      0.0019
      7  CG2        9.2810  -10.3370    0.0330 C.3   105  VAL105      0.0019
      8  N          8.8800   -6.4860    2.7780 N.3   108  LYS108     -0.1245
      9  CA         7.9530   -5.8650    1.8160 C.3   108  LYS108      0.1561
     10  C          7.4240   -4.5830    2.4060 C.2   108  LYS108      0.2260
     11  O          6.7990   -4.6070    3.4800 O.2   108  LYS108     -0.2867
     12  CB         6.7910   -6.8020    1.5090 C.3   108  LYS108      0.0271
     13  CG         5.8150   -6.2380    0.4930 C.3   108  LYS108      0.0035
     14  CD         4.5250   -7.0450    0.3710 C.3   108  LYS108      0.0206
     15  CE         4.7180   -8.3810   -0.2060 C.3   108  LYS108      0.1093
     16  NZ         3.3630   -8.9560   -0.4570 N.3   108  LYS108     -0.1314
     17  N          4.9200   -1.5190    1.5370 N.3   110  ILE110     -0.1245
     18  CA         3.8410   -1.0250    0.7200 C.3   110  ILE110      0.1561
     19  C          3.6420    0.4290    1.0590 C.2   110  ILE110      0.2260
     20  O          3.3580    0.7730    2.2140 O.2   110  ILE110     -0.2867
     21  CB         2.5580   -1.7970    0.9710 C.3   110  ILE110      0.0252
     22  CG1        2.7870   -3.2820    0.6580 C.3   110  ILE110      0.0019
     23  CG2        1.4230   -1.2330    0.0970 C.3   110  ILE110      0.0019
     24  CD1        1.6830   -4.1560    1.1950 C.3   110  ILE110      0.0001
     25  N          2.5230    0.1610    4.8860 N.3   118  LEU118     -0.1245
     26  CA         2.5970   -1.1110    5.6190 C.3   118  LEU118      0.1561
     27  C          4.0100   -1.6500    5.4470 C.2   118  LEU118      0.2260
     28  O          4.4880   -1.7820    4.3220 O.2   118  LEU118     -0.2867
     29  CB         1.6150   -2.1320    5.0910 C.3   118  LEU118      0.0270
     30  CG         0.1710   -1.8310    5.4090 C.3   118  LEU118      0.0019
     31  CD1       -0.7530   -2.6850    4.5650 C.3   118  LEU118      0.0001
     32  CD2       -0.1320   -2.1260    6.8870 C.3   118  LEU118      0.0001
     33  N          6.4690   -4.8160    6.2860 N.3   120  TYR120     -0.1241
     34  CA         6.5790   -6.2100    6.6840 C.3   120  TYR120      0.1605
     35  C          8.0390   -6.5920    6.6720 C.2   120  TYR120      0.2264
     36  O          8.7080   -6.4660    5.6520 O.2   120  TYR120     -0.2867
     37  CB         5.7460   -7.0730    5.7530 C.3   120  TYR120      0.0534
     38  CG         4.2960   -6.8030    5.7970 C.ar  120  TYR120     -0.0201
     39  CD1        3.5570   -7.1260    6.9130 C.ar  120  TYR120     -0.0009
     40  CD2        3.6420   -6.1440    4.7550 C.ar  120  TYR120     -0.0009
     41  CE1        2.2040   -6.9100    6.9670 C.ar  120  TYR120      0.0417
     42  CE2        2.2750   -5.9280    4.7930 C.ar  120  TYR120      0.0417
     43  CZ         1.5400   -6.3240    5.8840 C.ar  120  TYR120      0.1957
     44  OH         0.1670   -6.1230    5.9300 O.3   120  TYR120     -0.2866
     45  N         10.4050  -11.4920    7.1470 N.3   123  ILE123     -0.1245
     46  CA         9.4240  -12.4310    6.5760 C.3   123  ILE123      0.1561
     47  C         10.0870  -13.7870    6.3840 C.2   123  ILE123      0.2260
     48  O         11.1990  -13.8570    5.8670 O.2   123  ILE123     -0.2867
     49  CB         8.8090  -11.9120    5.2570 C.3   123  ILE123      0.0252
     50  CG1        8.2440  -10.4990    5.4480 C.3   123  ILE123      0.0019
     51  CG2        7.7630  -12.8800    4.7560 C.3   123  ILE123      0.0019
     52  CD1        7.8080   -9.8630    4.1460 C.3   123  ILE123      0.0001
     53  N          5.5040  -17.0440    5.1970 N.3   127  GLY127     -0.1225
     54  CA         4.8090  -15.7640    5.0710 C.3   127  GLY127      0.1811
     55  C          4.4660  -15.0810    6.3940 C.2   127  GLY127      0.2280
     56  O          3.6800  -14.1160    6.3960 O.2   127  GLY127     -0.2866
     57  N          2.5030  -10.4010   11.2170 N.3   144  LEU144     -0.1245
     58  CA         1.9930  -10.9260    9.9550 C.3   144  LEU144      0.1561
     59  C          1.9570  -12.4430    9.9940 C.2   144  LEU144      0.2260
     60  O          2.9320  -13.0550   10.4320 O.2   144  LEU144     -0.2867
     61  CB         2.9200  -10.5080    8.8250 C.3   144  LEU144      0.0270
     62  CG         2.6650  -11.1290    7.4490 C.3   144  LEU144      0.0019
     63  CD1        1.3850  -10.6290    6.8160 C.3   144  LEU144      0.0001
     64  CD2        3.8550  -10.8830    6.5300 C.3   144  LEU144      0.0001
     65  N         -2.7120   -9.7280    8.9090 N.3   149  THR149     -0.1218
     66  CA        -1.8980   -8.8060    9.6710 C.3   149  THR149      0.1862
     67  C         -2.7080   -8.3990   10.9060 C.2   149  THR149      0.2287
     68  O         -3.8870   -8.0760   10.7660 O.2   149  THR149     -0.2866
     69  CB        -1.6100   -7.5650    8.8430 C.3   149  THR149      0.1770
     70  OG1       -0.8900   -7.9180    7.6570 O.3   149  THR149     -0.2211
     71  CG2       -0.7760   -6.5250    9.5860 C.3   149  THR149      0.0375
     72  N         -5.6450  -11.3920    4.5450 N.3   166  LYS166     -0.1245
     73  CA        -4.8150  -11.6350    3.3670 C.3   166  LYS166      0.1561
     74  C         -5.3390  -10.9150    2.1080 C.2   166  LYS166      0.2260
     75  O         -4.5430  -10.4660    1.2800 O.2   166  LYS166     -0.2867
     76  CB        -4.6470  -13.1450    3.1610 C.3   166  LYS166      0.0271
     77  CG        -3.6710  -13.5780    2.0970 C.3   166  LYS166      0.0035
     78  CD        -3.9800  -14.9930    1.5550 C.3   166  LYS166      0.0206
     79  CE        -4.9500  -14.9070    0.3510 C.3   166  LYS166      0.1093
     80  NZ        -4.9670  -16.1030   -0.5850 N.3   166  LYS166     -0.1314
@<TRIPOS>BOND
     1    80    79    1
     2     1     2    1
     3    16    15    1
     4     5     2    1
     5     5     7    1
     6     5     6    1
     7    15    14    1
     8     2     3    1
     9    23    21    1
    10    79    78    1
    11    14    13    1
    12    13    12    1
    13    22    21    1
    14    22    24    1
    15    18    21    1
    16    18    19    1
    17    18    17    1
    18    19    20    2
    19    75    74    2
    20     3     4    2
    21    12     9    1
    22    78    77    1
    23     9    10    1
    24     9     8    1
    25    77    76    1
    26    74    73    1
    27    10    11    2
    28    76    73    1
    29    73    72    1
    30    52    50    1
    31    28    27    2
    32    31    30    1
    33    40    42   ar
    34    40    38   ar
    35    51    49    1
    36    42    43   ar
    37    25    26    1
    38    54    53    1
    39    54    55    1
    40    29    30    1
    41    29    26    1
    42    49    50    1
    43    49    46    1
    44    30    32    1
    45    27    26    1
    46    36    35    2
    47    37    38    1
    48    37    34    1
    49    38    39   ar
    50    48    47    2
    51    43    44    1
    52    43    41   ar
    53    33    34    1
    54    47    46    1
    55    55    56    2
    56    64    62    1
    57    46    45    1
    58    35    34    1
    59    63    62    1
    60    39    41   ar
    61    62    61    1
    62    70    69    1
    63    61    58    1
    64    69    71    1
    65    69    66    1
    66    65    66    1
    67    66    67    1
    68    58    59    1
    69    58    57    1
    70    59    60    2
    71    68    67    2
