@<TRIPOS>MOLECULE
tmp/2g8eA01.pdb
 77 73 0 0 0
SMALL
GASTEIGER

@<TRIPOS>ATOM
      1  N         49.2800   15.9530   36.5580 N.3    47  LYS47      -0.1245
      2  CA        49.5680   16.0050   35.1140 C.3    47  LYS47       0.1561
      3  C         48.2980   16.0170   34.2070 C.2    47  LYS47       0.2260
      4  O         48.3180   16.5920   33.1070 O.2    47  LYS47      -0.2867
      5  CB        50.5170   14.8790   34.7050 C.3    47  LYS47       0.0271
      6  CG        51.9430   15.1320   35.1420 C.3    47  LYS47       0.0035
      7  CD        52.7650   13.8570   35.1150 C.3    47  LYS47       0.0206
      8  CE        54.0820   14.0010   35.9180 C.3    47  LYS47       0.1093
      9  NZ        55.0300   12.9010   35.5240 N.3    47  LYS47      -0.1314
     10  N         57.6390   17.4890   20.8230 N.3    77  GLN77      -0.1231
     11  CA        57.1870   16.6950   21.9610 C.3    77  GLN77       0.1698
     12  C         56.3490   17.5260   22.9430 C.2    77  GLN77       0.2593
     13  O         56.6590   18.6970   23.1620 O.2    77  GLN77      -0.2718
     14  CB        58.4150   16.1160   22.6560 C.3    77  GLN77       0.0381
     15  CG        58.1460   15.0490   23.6490 C.3    77  GLN77       0.0905
     16  CD        59.4500   14.4630   24.2090 C.2    77  GLN77       0.2608
     17  OE1       60.4760   14.3100   23.4840 O.2    77  GLN77      -0.2717
     18  NE2       59.4290   14.1500   25.4940 N.am   77  GLN77      -0.0878
     19  N         55.2990   16.9160   23.4990 N.am   78  GLY78      -0.1942
     20  CA        54.5460   17.5350   24.5760 C.3    78  GLY78       0.2014
     21  C         54.9030   16.9170   25.9190 C.2    78  GLY78       0.2639
     22  O         56.0310   16.4370   26.1210 O.2    78  GLY78      -0.2714
     23  N         53.9420   16.8730   26.8280 N.am   79  ALA79      -0.1963
     24  CA        54.2000   16.3790   28.2080 C.3    79  ALA79       0.1728
     25  C         54.1800   14.8450   28.3560 C.2    79  ALA79       0.2616
     26  O         53.3500   14.2890   29.0500 O.2    79  ALA79      -0.2715
     27  CB        53.2450   17.0550   29.1970 C.3    79  ALA79       0.0334
     28  N         55.1160   14.1610   27.7030 N.am   80  LEU80      -0.1963
     29  CA        55.1470   12.6880   27.6720 C.3    80  LEU80       0.1728
     30  C         56.5410   12.2540   27.2570 C.2    80  LEU80       0.2616
     31  O         57.1520   12.8790   26.4070 O.2    80  LEU80      -0.2715
     32  CB        54.0900   12.1320   26.6640 C.3    80  LEU80       0.0311
     33  CG        53.9470   10.6180   26.3970 C.3    80  LEU80       0.0022
     34  CD1       53.5470    9.8790   27.6760 C.3    80  LEU80       0.0001
     35  CD2       52.9370   10.3480   25.2550 C.3    80  LEU80       0.0001
     36  N         57.0500   11.1800   27.8600 N.am   81  GLY81      -0.1955
     37  CA        58.3890   10.7140   27.6010 C.3    81  GLY81       0.1869
     38  C         58.4400    9.8470   26.3650 C.2    81  GLY81       0.2309
     39  O         59.0090    8.7320   26.3960 O.2    81  GLY81      -0.2863
     40  N         55.7420    6.3550   27.4720 N.3   174  SER174     -0.1217
     41  CA        56.7230    7.0350   28.2920 C.3   174  SER174      0.1889
     42  C         57.9120    6.1190   28.5420 C.2   174  SER174      0.2288
     43  O         57.7690    5.1150   29.2080 O.2   174  SER174     -0.2866
     44  CB        56.0630    7.3930   29.6310 C.3   174  SER174      0.2089
     45  OG        56.8740    8.3000   30.3510 O.3   174  SER174     -0.2183
     46  N         66.9270   12.8900   31.1750 N.3   229  GLU229     -0.1245
     47  CA        66.6600   14.2590   30.6920 C.3   229  GLU229      0.1567
     48  C         67.5360   15.3720   31.2840 C.2   229  GLU229      0.2260
     49  O         67.2470   16.5600   31.0660 O.2   229  GLU229     -0.2867
     50  CB        65.1480   14.6270   30.7870 C.3   229  GLU229      0.0388
     51  CG        64.2970   13.9200   29.7250 C.3   229  GLU229      0.1160
     52  CD        62.7920   14.0740   29.9430 C.2   229  GLU229      0.3649
     53  OE1       62.3140   13.8390   31.0510 O.co2 229  GLU229     -0.2457
     54  OE2       62.0830   14.3800   28.9930 O.co2 229  GLU229     -0.2457
     55  N         62.0370   17.5370   20.8760 N.3   266  TRP266     -0.1241
     56  CA        61.4300   18.6710   21.5830 C.3   266  TRP266      0.1605
     57  C         61.1890   19.8500   20.6310 C.2   266  TRP266      0.2264
     58  O         60.3360   20.6810   20.8740 O.2   266  TRP266     -0.2867
     59  CB        62.3250   19.1850   22.7130 C.3   266  TRP266      0.0550
     60  CG        62.4430   18.3000   23.8930 C.ar  266  TRP266      0.0003
     61  CD1       61.7580   17.1590   24.1250 C.ar  266  TRP266      0.0946
     62  CD2       63.2860   18.5100   25.0370 C.ar  266  TRP266      0.0152
     63  NE1       62.1270   16.6230   25.3480 N.ar  266  TRP266     -0.2442
     64  CE2       63.0740   17.4310   25.9150 C.ar  266  TRP266      0.0810
     65  CE3       64.1960   19.5220   25.4090 C.ar  266  TRP266      0.0012
     66  CZ2       63.7270   17.3250   27.1450 C.ar  266  TRP266      0.0191
     67  CZ3       64.8500   19.4010   26.6140 C.ar  266  TRP266      0.0001
     68  CH2       64.5980   18.3260   27.4790 C.ar  266  TRP266      0.0015
     69  N         63.3900   22.0610   20.1260 N.3   268  GLU268     -0.1245
     70  CA        64.2350   23.0910   20.6220 C.3   268  GLU268      0.1567
     71  C         65.2610   22.4140   21.5460 C.2   268  GLU268      0.2260
     72  O         65.1630   21.1810   21.8200 O.2   268  GLU268     -0.2867
     73  CB        63.3650   24.0770   21.4130 C.3   268  GLU268      0.0388
     74  CG        62.6590   23.3970   22.5290 C.3   268  GLU268      0.1160
     75  CD        61.8560   24.3570   23.3840 C.2   268  GLU268      0.3649
     76  OE1       61.3890   23.9560   24.4610 O.co2 268  GLU268     -0.2457
     77  OE2       61.6840   25.5160   22.9750 O.co2 268  GLU268     -0.2457
@<TRIPOS>BOND
     1    69    70    1
     2    70    73    1
     3    70    71    1
     4    57    58    2
     5    57    56    1
     6    10    11    1
     7    55    56    1
     8    73    74    1
     9    71    72    2
    10    56    59    1
    11    11    14    1
    12    11    12    1
    13    74    75    1
    14    14    15    1
    15    59    60    1
    16    12    13    2
    17    12    19   am
    18    77    75   ar
    19    75    76   ar
    20    17    16    2
    21    19    20    1
    22    15    16    1
    23    60    61   ar
    24    60    62   ar
    25    61    63   ar
    26    16    18   am
    27    20    21    1
    28    62    65   ar
    29    62    64   ar
    30    35    33    1
    31    63    64   ar
    32    65    67   ar
    33    64    66   ar
    34    21    22    2
    35    21    23   am
    36    38    39    2
    37    38    37    1
    38    33    32    1
    39    33    34    1
    40    31    30    2
    41    67    68   ar
    42    32    29    1
    43    23    24    1
    44    66    68   ar
    45    30    29    1
    46    30    36   am
    47    40    41    1
    48    37    36    1
    49    29    28    1
    50    28    25   am
    51    24    25    1
    52    24    27    1
    53    41    42    1
    54    41    44    1
    55    25    26    2
    56    42    43    2
    57    54    52   ar
    58    44    45    1
    59    51    52    1
    60    51    50    1
    61    52    53   ar
    62    47    50    1
    63    47    46    1
    64    47    48    1
    65    49    48    2
    66     4     3    2
    67     3     2    1
    68     5     2    1
    69     5     6    1
    70     2     1    1
    71     7     6    1
    72     7     8    1
    73     9     8    1
