@<TRIPOS>MOLECULE
tmp/2g8eA00.pdb
 159 152 0 0 0
SMALL
GASTEIGER

@<TRIPOS>ATOM
      1  N         57.6390   17.4890   20.8230 N.3    77  GLN77      -0.1245
      2  CA        57.1870   16.6950   21.9610 C.3    77  GLN77       0.1566
      3  C         56.3490   17.5260   22.9430 C.2    77  GLN77       0.2260
      4  O         56.6590   18.6970   23.1620 O.2    77  GLN77      -0.2867
      5  CB        58.4150   16.1160   22.6560 C.3    77  GLN77       0.0367
      6  CG        58.1460   15.0490   23.6490 C.3    77  GLN77       0.0905
      7  CD        59.4500   14.4630   24.2090 C.2    77  GLN77       0.2608
      8  OE1       60.4760   14.3100   23.4840 O.2    77  GLN77      -0.2717
      9  NE2       59.4290   14.1500   25.4940 N.am   77  GLN77      -0.0878
     10  N         57.0500   11.1800   27.8600 N.3    81  GLY81      -0.1225
     11  CA        58.3890   10.7140   27.6010 C.3    81  GLY81       0.1811
     12  C         58.4400    9.8470   26.3650 C.2    81  GLY81       0.2280
     13  O         59.0090    8.7320   26.3960 O.2    81  GLY81      -0.2866
     14  N         60.0110   10.5270   23.4640 N.3    83  CYS83      -0.1221
     15  CA        61.0850   10.9880   22.5790 C.3    83  CYS83       0.1808
     16  C         61.4480    9.9600   21.5140 C.2    83  CYS83       0.2601
     17  O         61.6540   10.3210   20.3420 O.2    83  CYS83      -0.2717
     18  CB        62.3250   11.3970   23.3850 C.3    83  CYS83       0.0970
     19  SG        62.8930   10.0870   24.4110 S.3    83  CYS83      -0.0800
     20  N         61.5090    8.6890   21.9250 N.am   84  TRP84      -0.1976
     21  CA        61.9010    7.5850   21.0490 C.3    84  TRP84       0.1640
     22  C         60.9790    7.4170   19.8260 C.2    84  TRP84       0.2290
     23  O         61.4320    7.2870   18.6980 O.2    84  TRP84      -0.2864
     24  CB        61.9900    6.2730   21.8550 C.3    84  TRP84       0.0576
     25  CG        60.6610    5.9070   22.5250 C.ar   84  TRP84       0.0006
     26  CD1       60.1940    6.3570   23.7410 C.ar   84  TRP84       0.0946
     27  CD2       59.6540    5.0220   22.0050 C.ar   84  TRP84       0.0152
     28  NE1       58.9700    5.8230   23.9890 N.ar   84  TRP84      -0.2442
     29  CE2       58.6160    4.9840   22.9520 C.ar   84  TRP84       0.0810
     30  CE3       59.5420    4.2400   20.8240 C.ar   84  TRP84       0.0012
     31  CZ2       57.4400    4.1890   22.7630 C.ar   84  TRP84       0.0191
     32  CZ3       58.3910    3.4460   20.6420 C.ar   84  TRP84       0.0001
     33  CH2       57.3470    3.4480   21.6060 C.ar   84  TRP84       0.0015
     34  N         55.7420    6.3550   27.4720 N.3   174  SER174     -0.1202
     35  CA        56.7230    7.0350   28.2920 C.3   174  SER174      0.2020
     36  C         57.9120    6.1190   28.5420 C.2   174  SER174      0.2619
     37  O         57.7690    5.1150   29.2080 O.2   174  SER174     -0.2717
     38  CB        56.0630    7.3930   29.6310 C.3   174  SER174      0.2103
     39  OG        56.8740    8.3000   30.3510 O.3   174  SER174     -0.2182
     40  N         59.0730    6.4520   28.0000 N.am  175  GLY175     -0.1942
     41  CA        60.2260    5.5560   28.0610 C.3   175  GLY175      0.2014
     42  C         60.1560    4.4180   27.0470 C.2   175  GLY175      0.2639
     43  O         59.2530    3.5930   27.1080 O.2   175  GLY175     -0.2714
     44  N         61.1110    4.3470   26.1210 N.am  176  GLY176     -0.1939
     45  CA        61.1030    3.2950   25.1400 C.3   176  GLY176      0.2014
     46  C         62.3070    3.3080   24.2290 C.2   176  GLY176      0.2639
     47  O         63.3050    3.9730   24.4930 O.2   176  GLY176     -0.2714
     48  N         62.1860    2.5770   23.1260 N.am  177  CYS177     -0.1953
     49  CA        63.2810    2.2930   22.2690 C.3   177  CYS177      0.1843
     50  C         62.9950    2.7560   20.8340 C.2   177  CYS177      0.2626
     51  O         62.0080    2.3490   20.2210 O.2   177  CYS177     -0.2714
     52  CB        63.5530    0.7910   22.3410 C.3   177  CYS177      0.0997
     53  SG        64.7320    0.2690   21.1540 S.3   177  CYS177     -0.0797
     54  N         63.8380    3.6500   20.3270 N.am  178  THR178     -0.1950
     55  CA        63.6610    4.2480   19.0050 C.3   178  THR178      0.1897
     56  C         63.4990    3.1820   17.8880 C.2   178  THR178      0.2313
     57  O         62.6730    3.3340   16.9910 O.2   178  THR178     -0.2863
     58  CB        64.8190    5.2940   18.7100 C.3   178  THR178      0.1794
     59  OG1       64.8910    6.2530   19.7810 O.3   178  THR178     -0.2208
     60  CG2       64.6110    6.0610   17.4360 C.3   178  THR178      0.0378
     61  N         62.1500    0.1910   18.1530 N.3   180  GLU180     -0.1245
     62  CA        60.8310   -0.3780   18.1210 C.3   180  GLU180      0.1567
     63  C         59.9380    0.4250   17.1980 C.2   180  GLU180      0.2260
     64  O         59.2520   -0.1740   16.4070 O.2   180  GLU180     -0.2867
     65  CB        60.1920   -0.4630   19.4700 C.3   180  GLU180      0.0388
     66  CG        60.7950   -1.5410   20.3250 C.3   180  GLU180      0.1160
     67  CD        59.9680   -1.8220   21.5680 C.2   180  GLU180      0.3649
     68  OE1       60.4900   -2.5540   22.4610 O.co2 180  GLU180     -0.2457
     69  OE2       58.7960   -1.3320   21.6280 O.co2 180  GLU180     -0.2457
     70  N         69.9310    8.4930   17.6050 N.3   218  CYS218     -0.1221
     71  CA        71.0810    8.4500   18.5380 C.3   218  CYS218      0.1808
     72  C         70.6900    8.8940   19.9540 C.2   218  CYS218      0.2602
     73  O         69.6620    9.5100   20.1450 O.2   218  CYS218     -0.2717
     74  CB        72.2750    9.2540   17.9800 C.3   218  CYS218      0.0970
     75  SG        71.9210   11.0100   17.7150 S.3   218  CYS218     -0.0800
     76  N         71.4890    8.5250   20.9590 N.am  219  SER219     -0.1938
     77  CA        71.1600    8.8810   22.3360 C.3   219  SER219      0.2055
     78  C         72.3890    8.7590   23.2500 C.2   219  SER219      0.2643
     79  O         73.3910    8.1590   22.8710 O.2   219  SER219     -0.2714
     80  CB        70.0300    8.0130   22.8380 C.3   219  SER219      0.2130
     81  OG        70.4350    6.6720   22.8510 O.3   219  SER219     -0.2179
     82  N         72.3000    9.3890   24.4210 N.am  220  ILE220     -0.1963
     83  CA        73.3000    9.3010   25.4800 C.3   220  ILE220      0.1727
     84  C         72.6950    8.3890   26.5020 C.2   220  ILE220      0.2616
     85  O         71.6570    8.7080   27.1050 O.2   220  ILE220     -0.2715
     86  CB        73.6060   10.6720   26.0980 C.3   220  ILE220      0.0290
     87  CG1       73.9450   11.6610   24.9860 C.3   220  ILE220      0.0022
     88  CG2       74.8160   10.5990   27.0100 C.3   220  ILE220      0.0023
     89  CD1       74.0020   13.1200   25.4560 C.3   220  ILE220      0.0001
     90  N         73.2840    7.2050   26.6190 N.am  221  ASN221     -0.1958
     91  CA        72.9260    6.1990   27.6270 C.3   221  ASN221      0.1819
     92  C         73.0600    6.7910   29.0260 C.2   221  ASN221      0.2621
     93  O         74.0280    7.4940   29.3070 O.2   221  ASN221     -0.2715
     94  CB        73.8050    4.9490   27.4570 C.3   221  ASN221      0.1195
     95  CG        73.3910    4.0940   26.2550 C.2   221  ASN221      0.2630
     96  OD1       74.0610    4.0730   25.2130 O.2   221  ASN221     -0.2716
     97  ND2       72.2780    3.3860   26.4000 N.am  221  ASN221     -0.0877
     98  N         72.0790    6.5460   29.8820 N.am  222  ILE222     -0.1977
     99  CA        72.2070    6.8770   31.3070 C.3   222  ILE222      0.1596
    100  C         72.2030    5.5390   32.0200 C.2   222  ILE222      0.2287
    101  O         71.6230    4.5810   31.5170 O.2   222  ILE222     -0.2864
    102  CB        71.0710    7.8140   31.8550 C.3   222  ILE222      0.0276
    103  CG1       69.6710    7.2540   31.5370 C.3   222  ILE222      0.0022
    104  CG2       71.2530    9.2290   31.3280 C.3   222  ILE222      0.0022
    105  CD1       68.6070    7.5220   32.5720 C.3   222  ILE222      0.0001
    106  N         68.0640   11.0300   33.8790 N.3   228  LEU228     -0.1231
    107  CA        67.0460   11.0930   32.8290 C.3   228  LEU228      0.1693
    108  C         66.7700   12.5410   32.4680 C.2   228  LEU228      0.2591
    109  O         66.4620   13.3310   33.3600 O.2   228  LEU228     -0.2718
    110  CB        65.7490   10.3880   33.2510 C.3   228  LEU228      0.0284
    111  CG        64.7130    9.9200   32.2130 C.3   228  LEU228      0.0019
    112  CD1       65.3260    9.5310   30.8660 C.3   228  LEU228      0.0001
    113  CD2       63.9870    8.6820   32.7620 C.3   228  LEU228      0.0001
    114  N         66.9270   12.8900   31.1750 N.am  229  GLU229     -0.1979
    115  CA        66.6600   14.2590   30.6920 C.3   229  GLU229      0.1602
    116  C         67.5360   15.3720   31.2840 C.2   229  GLU229      0.2287
    117  O         67.2470   16.5600   31.0660 O.2   229  GLU229     -0.2864
    118  CB        65.1480   14.6270   30.7870 C.3   229  GLU229      0.0415
    119  CG        64.2970   13.9200   29.7250 C.3   229  GLU229      0.1163
    120  CD        62.7920   14.0740   29.9430 C.2   229  GLU229      0.3649
    121  OE1       62.3140   13.8390   31.0510 O.co2 229  GLU229     -0.2457
    122  OE2       62.0830   14.3800   28.9930 O.co2 229  GLU229     -0.2457
    123  N         69.4850   10.4410   28.1670 N.3   239  GLY239     -0.1210
    124  CA        68.4030    9.4860   28.2620 C.3   239  GLY239      0.1956
    125  C         67.3070    9.8630   27.2800 C.2   239  GLY239      0.2612
    126  O         66.1390    9.6710   27.5530 O.2   239  GLY239     -0.2717
    127  N         67.6930   10.4040   26.1290 N.am  240  HIS240     -0.1961
    128  CA        66.7370   11.0960   25.2990 C.3   240  HIS240      0.1787
    129  C         67.0050   10.7710   23.8200 C.2   240  HIS240      0.2620
    130  O         68.1270   10.9220   23.3240 O.2   240  HIS240     -0.2715
    131  CB        66.8810   12.5970   25.5850 C.3   240  HIS240      0.0785
    132  CG        65.9310   13.4540   24.8240 C.ar  240  HIS240      0.0821
    133  ND1       64.5820   13.5120   25.1070 N.ar  240  HIS240     -0.2267
    134  CD2       66.1310   14.2700   23.7620 C.ar  240  HIS240      0.1154
    135  CE1       63.9950   14.3250   24.2440 C.ar  240  HIS240      0.1986
    136  NE2       64.9110   14.7940   23.4170 N.ar  240  HIS240     -0.2212
    137  N         65.9770   10.3710   23.0970 N.am  241  ALA241     -0.1977
    138  CA        66.1610   10.1160   21.6620 C.3   241  ALA241      0.1597
    139  C         66.3230   11.3380   20.7640 C.2   241  ALA241      0.2287
    140  O         65.5250   12.2390   20.8110 O.2   241  ALA241     -0.2864
    141  CB        65.0670    9.2590   21.1570 C.3   241  ALA241      0.0319
    142  N         75.1350    5.8320   21.7220 N.3   315  LYS315     -0.1245
    143  CA        74.3940    4.8020   20.9620 C.3   315  LYS315      0.1561
    144  C         73.9070    5.3510   19.6170 C.2   315  LYS315      0.2260
    145  O         73.4440    6.4950   19.5550 O.2   315  LYS315     -0.2867
    146  CB        73.2390    4.2230   21.7870 C.3   315  LYS315      0.0271
    147  CG        72.8160    2.8090   21.3280 C.3   315  LYS315      0.0035
    148  CD        71.4260    2.3250   21.8540 C.3   315  LYS315      0.0206
    149  CE        71.0280    0.9860   21.1580 C.3   315  LYS315      0.1093
    150  NZ        69.8110    0.1990   21.7010 N.3   315  LYS315     -0.1314
    151  N         71.4110    3.9530   16.3540 N.3   317  GLU317     -0.1245
    152  CA        70.4970    2.9680   15.7330 C.3   317  GLU317      0.1567
    153  C         70.2740    3.2610   14.2530 C.2   317  GLU317      0.2260
    154  O         70.0560    4.4250   13.8920 O.2   317  GLU317     -0.2867
    155  CB        69.1610    2.9420   16.4720 C.3   317  GLU317      0.0388
    156  CG        69.4350    2.5800   17.9400 C.3   317  GLU317      0.1160
    157  CD        68.2610    2.6340   18.8490 C.2   317  GLU317      0.3649
    158  OE1       68.2790    3.3900   19.8330 O.co2 317  GLU317     -0.2457
    159  OE2       67.3300    1.8640   18.6530 O.co2 317  GLU317     -0.2457
@<TRIPOS>BOND
     1   154   153    2
     2   153   152    1
     3   152   151    1
     4   152   155    1
     5    64    63    2
     6   155   156    1
     7    57    56    2
     8    63    62    1
     9    60    58    1
    10    70    71    1
    11    75    74    1
    12    56    55    1
    13   156   157    1
    14    74    71    1
    15    62    61    1
    16    62    65    1
    17    71    72    1
    18   159   157   ar
    19    23    22    2
    20    58    55    1
    21    58    59    1
    22   157   158   ar
    23    55    54    1
    24    65    66    1
    25   145   144    2
    26   144   143    1
    27    22    21    1
    28    72    73    2
    29    72    76   am
    30    51    50    2
    31    66    67    1
    32    54    50   am
    33    17    16    2
    34    32    30   ar
    35    32    33   ar
    36   139   140    2
    37   139   138    1
    38     1     2    1
    39    30    27   ar
    40    50    49    1
    41    76    77    1
    42   143   142    1
    43   143   146    1
    44    21    24    1
    45    21    20    1
    46    53    52    1
    47   141   138    1
    48   149   150    1
    49   149   148    1
    50   147   146    1
    51   147   148    1
    52    16    20   am
    53    16    15    1
    54    67    69   ar
    55    67    68   ar
    56    33    31   ar
    57   138   137    1
    58    24    25    1
    59     2     5    1
    60     2     3    1
    61    27    25   ar
    62    27    29   ar
    63    49    52    1
    64    49    48    1
    65    77    80    1
    66    77    78    1
    67    25    26   ar
    68    15    18    1
    69    15    14    1
    70     5     6    1
    71    31    29   ar
    72    80    81    1
    73    79    78    2
    74     3     4    2
    75    29    28   ar
    76   137   129   am
    77    48    46   am
    78    78    82   am
    79   130   129    2
    80    18    19    1
    81   136   134   ar
    82   136   135   ar
    83     8     7    2
    84     6     7    1
    85    26    28   ar
    86   134   132   ar
    87   129   128    1
    88     7     9   am
    89    46    47    2
    90    46    45    1
    91   135   133   ar
    92    82    83    1
    93   132   133   ar
    94   132   131    1
    95    87    89    1
    96    87    86    1
    97    45    44    1
    98    96    95    2
    99   128   131    1
   100   128   127    1
   101    83    86    1
   102    83    84    1
   103    86    88    1
   104    44    42   am
   105   127   125   am
   106    95    97   am
   107    95    94    1
   108    12    13    2
   109    12    11    1
   110    84    90   am
   111    84    85    2
   112    90    91    1
   113    42    43    2
   114    42    41    1
   115   125   126    2
   116   125   124    1
   117    94    91    1
   118    34    35    1
   119    11    10    1
   120    91    92    1
   121    40    41    1
   122    40    36   am
   123   123   124    1
   124    35    36    1
   125    35    38    1
   126    36    37    2
   127   122   120   ar
   128    92    93    2
   129    92    98   am
   130    38    39    1
   131   119   120    1
   132   119   118    1
   133    98    99    1
   134   120   121   ar
   135   115   118    1
   136   115   114    1
   137   115   116    1
   138   112   111    1
   139   117   116    2
   140   114   108   am
   141    99   102    1
   142    99   100    1
   143   104   102    1
   144   101   100    2
   145   103   102    1
   146   103   105    1
   147   111   113    1
   148   111   110    1
   149   108   107    1
   150   108   109    2
   151   107   110    1
   152   107   106    1
