@<TRIPOS>MOLECULE
tmp/2g8gA00.pdb
 102 103 0 0 0
SMALL
GASTEIGER

@<TRIPOS>ATOM
      1  N          8.5490  -22.0090   84.7790 N.3   201  LYS201     -0.1231
      2  CA         7.2560  -21.4800   85.1770 C.3   201  LYS201      0.1693
      3  C          6.9740  -22.0930   86.5320 C.2   201  LYS201      0.2592
      4  O          7.0610  -23.3040   86.7120 O.2   201  LYS201     -0.2718
      5  CB         6.1480  -21.8310   84.1800 C.3   201  LYS201      0.0285
      6  CG         4.9260  -20.8980   84.3270 C.3   201  LYS201      0.0035
      7  CD         3.7670  -21.2100   83.3550 C.3   201  LYS201      0.0206
      8  CE         4.1070  -20.8770   81.8900 C.3   201  LYS201      0.1093
      9  NZ         2.9910  -21.2160   80.9360 N.3   201  LYS201     -0.1314
     10  N          6.6470  -21.2410   87.4880 N.am  202  VAL202     -0.1966
     11  CA         6.4050  -21.6880   88.8380 C.3   202  VAL202      0.1712
     12  C          5.2670  -20.8740   89.4490 C.2   202  VAL202      0.2458
     13  O          5.1360  -19.6810   89.1970 O.2   202  VAL202     -0.2730
     14  CB         7.6860  -21.5020   89.6460 C.3   202  VAL202      0.0289
     15  CG1        7.9270  -20.0200   89.8840 C.3   202  VAL202      0.0023
     16  CG2        7.6140  -22.2640   90.9290 C.3   202  VAL202      0.0023
     17  N          4.4300  -21.5130   90.2680 N.am  203  PRO203     -0.2727
     18  CA         3.2850  -20.8930   90.9370 C.3   203  PRO203      0.1402
     19  C          3.6180  -19.6180   91.6850 C.2   203  PRO203      0.2269
     20  O          4.6410  -19.5490   92.3660 O.2   203  PRO203     -0.2865
     21  CB         2.8280  -21.9800   91.8930 C.3   203  PRO203      0.0296
     22  CG         3.1840  -23.2250   91.1730 C.3   203  PRO203      0.0237
     23  CD         4.5540  -22.9230   90.6630 C.3   203  PRO203      0.0939
     24  N          0.9980  -22.9050  101.9910 N.3   397  ASN397     -0.1240
     25  CA         2.3990  -23.2070  102.2250 C.3   397  ASN397      0.1653
     26  C          3.0210  -22.1390  103.1070 C.2   397  ASN397      0.2266
     27  O          2.4280  -21.0850  103.3320 O.2   397  ASN397     -0.2867
     28  CB         3.1690  -23.3100  100.9080 C.3   397  ASN397      0.1155
     29  CG         2.8830  -24.6030  100.1580 C.2   397  ASN397      0.2627
     30  OD1        2.8260  -25.6860  100.7550 O.2   397  ASN397     -0.2716
     31  ND2        2.7260  -24.5000   98.8360 N.am  397  ASN397     -0.0877
     32  N         14.9370  -28.5990   93.3060 N.3   410  ILE410     -0.1245
     33  CA        14.1990  -29.8030   93.6330 C.3   410  ILE410      0.1561
     34  C         15.1280  -30.9870   93.4590 C.2   410  ILE410      0.2260
     35  O         15.8500  -31.0840   92.4650 O.2   410  ILE410     -0.2867
     36  CB        13.0090  -29.9950   92.7080 C.3   410  ILE410      0.0252
     37  CG1       11.9980  -28.8830   92.9590 C.3   410  ILE410      0.0019
     38  CG2       12.4010  -31.3700   92.9220 C.3   410  ILE410      0.0019
     39  CD1       10.8610  -28.8950   92.0060 C.3   410  ILE410      0.0001
     40  N          8.2410  -37.1520   94.1840 N.3   416  HIS416     -0.1226
     41  CA         8.2070  -36.2890   95.3760 C.3   416  HIS416      0.1752
     42  C          6.7930  -35.9170   95.6700 C.2   416  HIS416      0.2596
     43  O          5.8610  -36.5840   95.2150 O.2   416  HIS416     -0.2718
     44  CB         8.9780  -34.9790   95.1190 C.3   416  HIS416      0.0759
     45  CG         9.0120  -34.5780   93.6760 C.ar  416  HIS416      0.0818
     46  ND1        9.9870  -35.0820   92.8490 N.ar  416  HIS416     -0.2268
     47  CD2        8.2480  -33.7220   92.9330 C.ar  416  HIS416      0.1154
     48  CE1        9.8230  -34.5510   91.6510 C.ar  416  HIS416      0.1986
     49  NE2        8.7940  -33.7210   91.6740 N.ar  416  HIS416     -0.2212
     50  N          6.6310  -34.8380   96.3850 N.am  417  PHE417     -0.1962
     51  CA         5.3020  -34.4740   96.6870 C.3   417  PHE417      0.1771
     52  C          5.2110  -32.9960   97.0030 C.2   417  PHE417      0.2620
     53  O          5.8530  -32.5180   97.9330 O.2   417  PHE417     -0.2715
     54  CB         4.7980  -35.3190   97.8640 C.3   417  PHE417      0.0574
     55  CG         3.3870  -35.0060   98.2290 C.ar  417  PHE417     -0.0200
     56  CD1        2.3480  -35.5430   97.4890 C.ar  417  PHE417     -0.0042
     57  CD2        3.0870  -34.1720   99.3020 C.ar  417  PHE417     -0.0042
     58  CE1        1.0210  -35.2530   97.8090 C.ar  417  PHE417     -0.0003
     59  CE2        1.7630  -33.8780   99.6260 C.ar  417  PHE417     -0.0003
     60  CZ         0.7290  -34.4190   98.8750 C.ar  417  PHE417     -0.0000
     61  N          4.4180  -32.2810   96.2110 N.am  418  HIS418     -0.1960
     62  CA         4.2200  -30.8500   96.3930 C.3   418  HIS418      0.1772
     63  C          5.5370  -30.1550   96.7630 C.2   418  HIS418      0.2462
     64  O          5.7280  -29.7310   97.8990 O.2   418  HIS418     -0.2730
     65  CB         3.1760  -30.6430   97.4760 C.3   418  HIS418      0.0785
     66  CG         2.4920  -29.3230   97.3950 C.ar  418  HIS418      0.0821
     67  ND1        2.9390  -28.2130   98.0770 N.ar  418  HIS418     -0.2267
     68  CD2        1.4270  -28.9180   96.6640 C.ar  418  HIS418      0.1154
     69  CE1        2.1800  -27.1780   97.7690 C.ar  418  HIS418      0.1986
     70  NE2        1.2570  -27.5790   96.9130 N.ar  418  HIS418     -0.2212
     71  N          6.3870  -30.0190   95.7260 N.am  419  PRO419     -0.2716
     72  CA         7.7600  -29.3980   95.7430 C.3   419  PRO419      0.1536
     73  C          7.9410  -27.9580   96.2210 C.2   419  PRO419      0.2599
     74  O          8.5480  -27.1540   95.4940 O.2   419  PRO419     -0.2715
     75  CB         8.2170  -29.6450   94.3230 C.3   419  PRO419      0.0310
     76  CG         7.6360  -30.9980   94.0240 C.3   419  PRO419      0.0237
     77  CD         6.4170  -31.1900   94.8530 C.3   419  PRO419      0.0939
     78  N          7.4330  -27.5790   97.3780 N.am  420  SER420     -0.1950
     79  CA         7.6270  -26.2180   97.7880 C.3   420  SER420      0.1924
     80  C          8.7670  -26.2480   98.8030 C.2   420  SER420      0.2314
     81  O          8.6280  -26.9120   99.8140 O.2   420  SER420     -0.2863
     82  CB         6.3650  -25.5980   98.4130 C.3   420  SER420      0.2116
     83  OG         6.5910  -24.2490   98.7920 O.3   420  SER420     -0.2180
     84  N         10.0060  -20.4800   99.6910 N.3   425  GLY425     -0.1210
     85  CA        10.5260  -20.0970   98.3910 C.3   425  GLY425      0.1956
     86  C          9.9620  -20.8600   97.2080 C.2   425  GLY425      0.2612
     87  O          8.9500  -21.5670   97.3150 O.2   425  GLY425     -0.2717
     88  N         10.6330  -20.7130   96.0690 N.am  426  PHE426     -0.1962
     89  CA        10.2040  -21.3740   94.8510 C.3   426  PHE426      0.1771
     90  C         11.0320  -22.6120   94.5220 C.2   426  PHE426      0.2620
     91  O         12.2660  -22.5570   94.4270 O.2   426  PHE426     -0.2715
     92  CB        10.2570  -20.3940   93.6930 C.3   426  PHE426      0.0574
     93  CG         9.4420  -19.1620   93.9130 C.ar  426  PHE426     -0.0200
     94  CD1       10.0130  -18.0260   94.4680 C.ar  426  PHE426     -0.0042
     95  CD2        8.1020  -19.1250   93.5430 C.ar  426  PHE426     -0.0042
     96  CE1        9.2580  -16.8550   94.6480 C.ar  426  PHE426     -0.0003
     97  CE2        7.3370  -17.9600   93.7180 C.ar  426  PHE426     -0.0003
     98  CZ         7.9180  -16.8200   94.2720 C.ar  426  PHE426     -0.0000
     99  N         10.3320  -23.7310   94.3580 N.am  427  GLY427     -0.1954
    100  CA        10.9890  -24.9800   94.0410 C.3   427  GLY427      0.1869
    101  C         11.1140  -25.1090   92.5450 C.2   427  GLY427      0.2309
    102  O         10.1190  -25.2880   91.8480 O.2   427  GLY427     -0.2863
@<TRIPOS>BOND
     1     9     8    1
     2     8     7    1
     3     7     6    1
     4     5     6    1
     5     5     2    1
     6     1     2    1
     7     2     3    1
     8     3     4    2
     9     3    10   am
    10    10    11    1
    11    11    12    1
    12    11    14    1
    13    13    12    2
    14    12    17   am
    15    14    15    1
    16    14    16    1
    17    17    23    1
    18    17    18    1
    19    23    22    1
    20    18    19    1
    21    18    21    1
    22    22    21    1
    23    48    49   ar
    24    48    46   ar
    25    49    47   ar
    26    19    20    2
    27   102   101    2
    28    39    37    1
    29    35    34    2
    30   101   100    1
    31    36    38    1
    32    36    37    1
    33    36    33    1
    34    46    45   ar
    35    47    45   ar
    36    32    33    1
    37    34    33    1
    38    95    97   ar
    39    95    93   ar
    40    45    44    1
    41    92    93    1
    42    92    89    1
    43    97    98   ar
    44    93    94   ar
    45    76    75    1
    46    76    77    1
    47   100    99    1
    48    40    41    1
    49    98    96   ar
    50    75    72    1
    51    99    90   am
    52    91    90    2
    53    94    96   ar
    54    90    89    1
    55    89    88    1
    56    77    71    1
    57    44    41    1
    58    43    42    2
    59    41    42    1
    60    74    73    2
    61    42    50   am
    62    71    72    1
    63    71    63   am
    64    72    73    1
    65    88    86   am
    66    61    62    1
    67    61    52   am
    68    73    78   am
    69    50    51    1
    70    62    63    1
    71    62    65    1
    72    68    70   ar
    73    68    66   ar
    74    51    52    1
    75    51    54    1
    76    63    64    2
    77    70    69   ar
    78    52    53    2
    79    86    87    2
    80    86    85    1
    81    78    79    1
    82    66    65    1
    83    66    67   ar
    84    56    58   ar
    85    56    55   ar
    86    69    67   ar
    87    79    82    1
    88    79    80    1
    89    58    60   ar
    90    54    55    1
    91    55    57   ar
    92    85    84    1
    93    82    83    1
    94    80    81    2
    95    31    29   am
    96    60    59   ar
    97    57    59   ar
    98    29    30    2
    99    29    28    1
   100    28    25    1
   101    24    25    1
   102    25    26    1
   103    26    27    2
