@<TRIPOS>MOLECULE
tmp/2g8jA00.pdb
 154 149 0 0 0
SMALL
GASTEIGER

@<TRIPOS>ATOM
      1  N         -2.8750   -0.7750  -16.4660 N.3    77  GLN77      -0.1245
      2  CA        -3.1940   -2.1740  -16.7490 C.3    77  GLN77       0.1566
      3  C         -1.9600   -3.0080  -17.0950 C.2    77  GLN77       0.2260
      4  O         -1.0850   -2.5590  -17.8450 O.2    77  GLN77      -0.2867
      5  CB        -4.2100   -2.2580  -17.8900 C.3    77  GLN77       0.0367
      6  CG        -4.7250   -3.6700  -18.1280 C.3    77  GLN77       0.0905
      7  CD        -6.0050   -3.7090  -18.9290 C.2    77  GLN77       0.2608
      8  OE1       -6.5640   -2.6710  -19.3100 O.2    77  GLN77      -0.2717
      9  NE2       -6.4980   -4.9190  -19.1710 N.am   77  GLN77      -0.0878
     10  N         -3.5050   -8.7060  -18.3410 N.3    80  LEU80      -0.1231
     11  CA        -4.7190   -9.3920  -17.9320 C.3    80  LEU80       0.1693
     12  C         -5.9070   -8.6860  -18.5500 C.2    80  LEU80       0.2592
     13  O         -5.9150   -7.4540  -18.6470 O.2    80  LEU80      -0.2718
     14  CB        -4.8390   -9.4040  -16.3950 C.3    80  LEU80       0.0284
     15  CG        -5.9820  -10.1900  -15.7420 C.3    80  LEU80       0.0019
     16  CD1       -5.9140  -11.6560  -16.0950 C.3    80  LEU80       0.0001
     17  CD2       -5.9510  -10.0040  -14.1990 C.3    80  LEU80       0.0001
     18  N         -6.9340   -9.4450  -18.9330 N.am   81  GLY81      -0.1957
     19  CA        -8.1020   -8.8550  -19.5940 C.3    81  GLY81       0.1869
     20  C         -9.0870   -8.1480  -18.6740 C.2    81  GLY81       0.2309
     21  O        -10.3090   -8.2380  -18.8910 O.2    81  GLY81      -0.2863
     22  N         -9.7070   -4.8480  -18.0970 N.3    83  CYS83      -0.1221
     23  CA        -9.8870   -3.4070  -18.3540 C.3    83  CYS83       0.1808
     24  C        -11.1340   -2.8310  -17.6720 C.2    83  CYS83       0.2601
     25  O        -11.0890   -1.7230  -17.1200 O.2    83  CYS83      -0.2717
     26  CB        -9.9070   -3.1180  -19.8540 C.3    83  CYS83       0.0970
     27  SG       -11.1830   -4.0100  -20.7450 S.3    83  CYS83      -0.0800
     28  N        -12.2360   -3.5900  -17.7060 N.am   84  TRP84      -0.1976
     29  CA       -13.4990   -3.2060  -17.0360 C.3    84  TRP84       0.1640
     30  C        -13.3380   -2.8800  -15.5290 C.2    84  TRP84       0.2290
     31  O        -13.7880   -1.8260  -15.0250 O.2    84  TRP84      -0.2864
     32  CB       -14.5100   -4.3490  -17.2650 C.3    84  TRP84       0.0576
     33  CG       -14.0290   -5.6840  -16.7800 C.ar   84  TRP84       0.0006
     34  CD1      -13.2020   -6.5580  -17.4470 C.ar   84  TRP84       0.0946
     35  CD2      -14.3360   -6.3010  -15.5140 C.ar   84  TRP84       0.0152
     36  NE1      -12.9880   -7.6870  -16.6630 N.ar   84  TRP84      -0.2442
     37  CE2      -13.6720   -7.5530  -15.4810 C.ar   84  TRP84       0.0810
     38  CE3      -15.1220   -5.9210  -14.4080 C.ar   84  TRP84       0.0012
     39  CZ2      -13.7530   -8.4220  -14.3690 C.ar   84  TRP84       0.0191
     40  CZ3      -15.2160   -6.8020  -13.2960 C.ar   84  TRP84       0.0001
     41  CH2      -14.5270   -8.0300  -13.2950 C.ar   84  TRP84       0.0015
     42  N        -10.6770  -11.9520  -16.5580 N.3   174  SER174     -0.1202
     43  CA       -10.4680  -11.7310  -17.9970 C.3   174  SER174      0.2020
     44  C        -11.8070  -11.6030  -18.7360 C.2   174  SER174      0.2619
     45  O        -12.5560  -12.5810  -18.8990 O.2   174  SER174     -0.2717
     46  CB        -9.6310  -12.8740  -18.5980 C.3   174  SER174      0.2103
     47  OG        -9.4220  -12.7010  -19.9950 O.3   174  SER174     -0.2182
     48  N        -12.1080  -10.3790  -19.1700 N.am  175  GLY175     -0.1942
     49  CA       -13.3870  -10.0950  -19.8400 C.3   175  GLY175      0.2014
     50  C        -14.5010   -9.8450  -18.8390 C.2   175  GLY175      0.2639
     51  O        -14.7770  -10.6720  -17.9560 O.2   175  GLY175     -0.2714
     52  N        -15.1590   -8.7020  -18.9660 N.am  176  GLY176     -0.1939
     53  CA       -16.1950   -8.3630  -18.0150 C.3   176  GLY176      0.2014
     54  C        -16.9240   -7.0800  -18.3040 C.2   176  GLY176      0.2639
     55  O        -16.7880   -6.4830  -19.3840 O.2   176  GLY176     -0.2714
     56  N        -17.6670   -6.6450  -17.2970 N.am  177  CYS177     -0.1953
     57  CA       -18.6010   -5.5440  -17.4140 C.3   177  CYS177      0.1843
     58  C        -18.2290   -4.4630  -16.4140 C.2   177  CYS177      0.2626
     59  O        -18.2050   -4.7170  -15.2050 O.2   177  CYS177     -0.2714
     60  CB       -20.0070   -6.0740  -17.1330 C.3   177  CYS177      0.0997
     61  SG       -21.3290   -4.8610  -17.1370 S.3   177  CYS177     -0.0797
     62  N        -17.9240   -3.2640  -16.9190 N.am  178  THR178     -0.1950
     63  CA       -17.4960   -2.1550  -16.0600 C.3   178  THR178      0.1897
     64  C        -18.4860   -1.9200  -14.9090 C.2   178  THR178      0.2313
     65  O        -18.0840   -1.6730  -13.7720 O.2   178  THR178     -0.2863
     66  CB       -17.2620   -0.8540  -16.8740 C.3   178  THR178      0.1794
     67  OG1      -16.4320   -1.1580  -18.0120 O.3   178  THR178     -0.2208
     68  CG2      -16.5800    0.2220  -16.0130 C.3   178  THR178      0.0378
     69  N        -17.0860    4.1810  -20.4590 N.3   218  CYS218     -0.1221
     70  CA       -17.6160    4.0800  -21.8180 C.3   218  CYS218      0.1808
     71  C        -16.8270    3.0860  -22.6730 C.2   218  CYS218      0.2602
     72  O        -15.6970    2.7230  -22.3470 O.2   218  CYS218     -0.2717
     73  CB       -17.6490    5.4690  -22.4530 C.3   218  CYS218      0.0970
     74  SG       -16.0310    6.2740  -22.4490 S.3   218  CYS218     -0.0800
     75  N        -17.4410    2.6430  -23.7670 N.am  219  SER219     -0.1938
     76  CA       -16.7820    1.6820  -24.6410 C.3   219  SER219      0.2055
     77  C        -17.3010    1.7610  -26.0680 C.2   219  SER219      0.2643
     78  O        -18.3300    2.3920  -26.3370 O.2   219  SER219     -0.2714
     79  CB       -16.9810    0.2580  -24.1050 C.3   219  SER219      0.2130
     80  OG       -18.3560   -0.0730  -24.0350 O.3   219  SER219     -0.2179
     81  N        -16.5660    1.1040  -26.9620 N.am  220  ILE220     -0.1963
     82  CA       -16.9320    1.0280  -28.3750 C.3   220  ILE220      0.1727
     83  C        -17.1820   -0.4240  -28.7070 C.2   220  ILE220      0.2616
     84  O        -16.2760   -1.2550  -28.6230 O.2   220  ILE220     -0.2715
     85  CB       -15.7950    1.5150  -29.2990 C.3   220  ILE220      0.0290
     86  CG1      -15.4000    2.9590  -28.9920 C.3   220  ILE220      0.0022
     87  CG2      -16.2040    1.3520  -30.7760 C.3   220  ILE220      0.0023
     88  CD1      -13.9990    3.2740  -29.3750 C.3   220  ILE220      0.0001
     89  N        -18.4170   -0.7290  -29.0650 N.am  221  ASN221     -0.1972
     90  CA       -18.7590   -2.0900  -29.4290 C.3   221  ASN221      0.1688
     91  C        -18.0470   -2.5310  -30.7090 C.2   221  ASN221      0.2292
     92  O        -17.9360   -1.7550  -31.6660 O.2   221  ASN221     -0.2864
     93  CB       -20.2630   -2.2360  -29.5950 C.3   221  ASN221      0.1181
     94  CG       -20.6670   -3.6590  -29.8530 C.2   221  ASN221      0.2629
     95  OD1      -20.1900   -4.5790  -29.1840 O.2   221  ASN221     -0.2716
     96  ND2      -21.5360   -3.8580  -30.8330 N.am  221  ASN221     -0.0877
     97  N         -9.4590    2.2570  -28.7110 N.3   237  VAL237     -0.1245
     98  CA        -9.4300    0.7940  -28.5920 C.3   237  VAL237      0.1561
     99  C        -10.8580    0.2740  -28.5280 C.2   237  VAL237      0.2260
    100  O        -11.6260    0.6890  -27.6720 O.2   237  VAL237     -0.2867
    101  CB        -8.6240    0.3370  -27.3330 C.3   237  VAL237      0.0252
    102  CG1       -8.3690   -1.1890  -27.3630 C.3   237  VAL237      0.0019
    103  CG2       -7.3240    1.1330  -27.1920 C.3   237  VAL237      0.0019
    104  N        -13.9310   -2.5630  -27.9840 N.3   239  GLY239     -0.1210
    105  CA       -14.1800   -3.6420  -27.0160 C.3   239  GLY239      0.1956
    106  C        -13.4200   -3.4470  -25.7060 C.2   239  GLY239      0.2612
    107  O        -13.0350   -4.4180  -25.0580 O.2   239  GLY239     -0.2717
    108  N        -13.2450   -2.1930  -25.3020 N.am  240  HIS240     -0.1961
    109  CA       -12.3170   -1.8550  -24.2230 C.3   240  HIS240      0.1787
    110  C        -12.9300   -0.7960  -23.2990 C.2   240  HIS240      0.2620
    111  O        -13.4810    0.2040  -23.7800 O.2   240  HIS240     -0.2715
    112  CB       -11.0130   -1.3400  -24.8520 C.3   240  HIS240      0.0785
    113  CG        -9.9300   -0.9870  -23.8790 C.ar  240  HIS240      0.0821
    114  ND1       -9.3310   -1.9140  -23.0520 N.ar  240  HIS240     -0.2267
    115  CD2       -9.2950    0.1900  -23.6450 C.ar  240  HIS240      0.1154
    116  CE1       -8.3810   -1.3220  -22.3460 C.ar  240  HIS240      0.1986
    117  NE2       -8.3470   -0.0440  -22.6790 N.ar  240  HIS240     -0.2212
    118  N        -12.8290   -1.0250  -21.9870 N.am  241  ALA241     -0.1977
    119  CA       -13.3710   -0.0970  -20.9940 C.3   241  ALA241      0.1597
    120  C        -12.5190    1.1410  -20.8080 C.2   241  ALA241      0.2287
    121  O        -11.3450    1.0170  -20.4890 O.2   241  ALA241     -0.2864
    122  CB       -13.5140   -0.7810  -19.6450 C.3   241  ALA241      0.0319
    123  N         -5.0200    1.5060  -19.7000 N.3   266  TRP266     -0.1241
    124  CA        -3.6330    1.1720  -20.0580 C.3   266  TRP266      0.1605
    125  C         -2.6420    2.2240  -19.5510 C.2   266  TRP266      0.2264
    126  O         -1.4470    1.9330  -19.4220 O.2   266  TRP266     -0.2867
    127  CB        -3.4950    1.0350  -21.5780 C.3   266  TRP266      0.0550
    128  CG        -4.1780   -0.1530  -22.1780 C.ar  266  TRP266      0.0003
    129  CD1       -4.7610   -1.2080  -21.5250 C.ar  266  TRP266      0.0946
    130  CD2       -4.2720   -0.4420  -23.5740 C.ar  266  TRP266      0.0152
    131  NE1       -5.2600   -2.1200  -22.4540 N.ar  266  TRP266     -0.2442
    132  CE2       -4.9680   -1.6600  -23.7130 C.ar  266  TRP266      0.0810
    133  CE3       -3.8640    0.2410  -24.7310 C.ar  266  TRP266      0.0012
    134  CZ2       -5.2450   -2.2250  -24.9670 C.ar  266  TRP266      0.0191
    135  CZ3       -4.1460   -0.3170  -25.9710 C.ar  266  TRP266      0.0001
    136  CH2       -4.8280   -1.5360  -26.0790 C.ar  266  TRP266      0.0015
    137  N        -21.4360    2.9690  -26.0100 N.3   315  LYS315     -0.1245
    138  CA       -22.0520    2.6540  -24.7230 C.3   315  LYS315      0.1561
    139  C        -21.4740    3.5470  -23.6270 C.2   315  LYS315      0.2260
    140  O        -20.2620    3.7470  -23.5440 O.2   315  LYS315     -0.2867
    141  CB       -21.8100    1.1720  -24.3880 C.3   315  LYS315      0.0271
    142  CG       -22.5420    0.6910  -23.1510 C.3   315  LYS315      0.0035
    143  CD       -22.4310   -0.8230  -22.9910 C.3   315  LYS315      0.0206
    144  CE       -23.2350   -1.2790  -21.7930 C.3   315  LYS315      0.1093
    145  NZ       -23.1980   -2.7500  -21.6220 N.3   315  LYS315     -0.1314
    146  N        -21.8520    3.8510  -19.3600 N.3   317  GLU317     -0.1245
    147  CA       -22.3970    3.2780  -18.1260 C.3   317  GLU317      0.1567
    148  C        -22.2160    4.2570  -16.9870 C.2   317  GLU317      0.2260
    149  O        -21.1690    4.8690  -16.8540 O.2   317  GLU317     -0.2867
    150  CB       -21.7020    1.9570  -17.7940 C.3   317  GLU317      0.0388
    151  CG       -21.8120    0.9130  -18.9180 C.3   317  GLU317      0.1160
    152  CD       -20.9210   -0.2770  -18.6890 C.2   317  GLU317      0.3649
    153  OE1      -20.1080   -0.6300  -19.5830 O.co2 317  GLU317     -0.2457
    154  OE2      -21.0380   -0.8750  -17.6060 O.co2 317  GLU317     -0.2457
@<TRIPOS>BOND
     1    92    91    2
     2    96    94   am
     3    87    85    1
     4    91    90    1
     5    94    93    1
     6    94    95    2
     7    93    90    1
     8    90    89    1
     9    88    86    1
    10    85    86    1
    11    85    82    1
    12    89    83   am
    13    97    98    1
    14    83    84    2
    15    83    82    1
    16    98    99    1
    17    98   101    1
    18    99   100    2
    19    82    81    1
    20   104   105    1
    21   102   101    1
    22   101   103    1
    23   105   106    1
    24    81    77   am
    25    78    77    2
    26   136   135   ar
    27   136   134   ar
    28    77    76    1
    29   137   138    1
    30   135   133   ar
    31   106   108   am
    32   106   107    2
    33   108   109    1
    34   134   132   ar
    35   112   109    1
    36   112   113    1
    37   133   130   ar
    38   138   141    1
    39   138   139    1
    40    76    79    1
    41    76    75    1
    42   141   142    1
    43   109   110    1
    44    79    80    1
    45   113   115   ar
    46   113   114   ar
    47   111   110    2
    48    75    71   am
    49   132   130   ar
    50   132   131   ar
    51   115   117   ar
    52   139   140    2
    53   130   128   ar
    54   110   118   am
    55   142   143    1
    56   114   116   ar
    57   143   144    1
    58   117   116   ar
    59    71    72    2
    60    71    70    1
    61   131   129   ar
    62    73    74    1
    63    73    70    1
    64   128   127    1
    65   128   129   ar
    66   118   119    1
    67    70    69    1
    68   144   145    1
    69   127   124    1
    70   119   120    1
    71   119   122    1
    72   120   121    2
    73    27    26    1
    74   124   123    1
    75   124   125    1
    76    47    46    1
    77    26    23    1
    78    49    48    1
    79    49    50    1
    80    19    18    1
    81    19    20    1
    82   153   152   ar
    83   125   126    2
    84    55    54    2
    85   146   147    1
    86     8     7    2
    87     9     7   am
    88    48    44   am
    89    52    50   am
    90    52    53    1
    91    18    12   am
    92     7     6    1
    93   151   152    1
    94   151   150    1
    95    45    44    2
    96    21    20    2
    97    50    51    2
    98    44    43    1
    99   152   154   ar
   100    13    12    2
   101    46    43    1
   102    12    11    1
   103    23    22    1
   104    23    24    1
   105    10    11    1
   106    54    53    1
   107    54    56   am
   108     6     5    1
   109   147   150    1
   110   147   148    1
   111    67    66    1
   112    43    42    1
   113    11    14    1
   114     5     2    1
   115     4     3    2
   116    28    24   am
   117    28    29    1
   118    24    25    2
   119    34    33   ar
   120    34    36   ar
   121    57    56    1
   122    57    60    1
   123    57    58    1
   124    32    29    1
   125    32    33    1
   126    61    60    1
   127     3     2    1
   128    29    30    1
   129   148   149    2
   130    62    58   am
   131    62    63    1
   132    66    63    1
   133    66    68    1
   134    33    35   ar
   135     2     1    1
   136    36    37   ar
   137    58    59    2
   138    14    15    1
   139    16    15    1
   140    63    64    1
   141    15    17    1
   142    30    31    2
   143    35    37   ar
   144    35    38   ar
   145    37    39   ar
   146    64    65    2
   147    38    40   ar
   148    39    41   ar
   149    40    41   ar
