@<TRIPOS>MOLECULE
tmp/2g8nB00.pdb
 191 179 0 0 0
SMALL
GASTEIGER

@<TRIPOS>ATOM
      1  N         36.4970   59.2500  -25.0330 N.3    22  TYR22      -0.1241
      2  CA        35.0890   58.9410  -25.3050 C.3    22  TYR22       0.1605
      3  C         34.3460   58.6740  -23.9960 C.2    22  TYR22       0.2264
      4  O         33.3190   59.3030  -23.7000 O.2    22  TYR22      -0.2867
      5  CB        34.9790   57.7150  -26.2100 C.3    22  TYR22       0.0534
      6  CG        33.5490   57.3180  -26.5160 C.ar   22  TYR22      -0.0201
      7  CD1       32.7830   58.0330  -27.4430 C.ar   22  TYR22      -0.0009
      8  CD2       32.9510   56.2430  -25.8610 C.ar   22  TYR22      -0.0009
      9  CE1       31.4470   57.6720  -27.7140 C.ar   22  TYR22       0.0417
     10  CE2       31.6120   55.8790  -26.1120 C.ar   22  TYR22       0.0417
     11  CZ        30.8730   56.5910  -27.0370 C.ar   22  TYR22       0.1957
     12  OH        29.5760   56.2070  -27.2970 O.3    22  TYR22      -0.2866
     13  N         31.3400   61.0060  -22.3780 N.3    26  ASN26      -0.1225
     14  CA        29.9820   60.5250  -22.3050 C.3    26  ASN26       0.1785
     15  C         29.5210   59.8180  -21.0300 C.2    26  ASN26       0.2597
     16  O         28.3330   59.8610  -20.6820 O.2    26  ASN26      -0.2718
     17  CB        29.7450   59.6570  -23.5380 C.3    26  ASN26       0.1169
     18  CG        29.9490   60.4400  -24.8370 C.2    26  ASN26       0.2627
     19  OD1       29.1270   61.2930  -25.1830 O.2    26  ASN26      -0.2716
     20  ND2       31.0620   60.1750  -25.5470 N.am   26  ASN26      -0.0877
     21  N         30.4520   59.2100  -20.3040 N.am   27  TYR27      -0.1976
     22  CA        30.0570   58.4770  -19.1190 C.3    27  TYR27       0.1639
     23  C         30.5290   58.9940  -17.7730 C.2    27  TYR27       0.2290
     24  O         30.1510   58.4620  -16.7330 O.2    27  TYR27      -0.2864
     25  CB        30.4010   57.0200  -19.3490 C.3    27  TYR27       0.0560
     26  CG        29.6370   56.5380  -20.5540 C.ar   27  TYR27      -0.0198
     27  CD1       30.2400   56.4560  -21.8080 C.ar   27  TYR27      -0.0009
     28  CD2       28.2770   56.2540  -20.4540 C.ar   27  TYR27      -0.0009
     29  CE1       29.4910   56.0960  -22.9400 C.ar   27  TYR27       0.0417
     30  CE2       27.5290   55.9020  -21.5670 C.ar   27  TYR27       0.0417
     31  CZ        28.1360   55.8220  -22.8060 C.ar   27  TYR27       0.1957
     32  OH        27.3780   55.4800  -23.9120 O.3    27  TYR27      -0.2866
     33  N         27.1840   64.0880  -17.7900 N.3    31  ARG31      -0.1245
     34  CA        26.3570   63.0740  -18.4540 C.3    31  ARG31       0.1563
     35  C         26.2830   61.7710  -17.6460 C.2    31  ARG31       0.2260
     36  O         25.2280   61.1260  -17.5840 O.2    31  ARG31      -0.2867
     37  CB        26.8880   62.7980  -19.8560 C.3    31  ARG31       0.0307
     38  CG        26.6810   63.9840  -20.7810 C.3    31  ARG31       0.0489
     39  CD        27.1290   63.7030  -22.2060 C.3    31  ARG31       0.2205
     40  NE        26.7010   64.7940  -23.0730 N.pl3  31  ARG31      -0.0865
     41  CZ        26.7530   64.7740  -24.3980 C.cat  31  ARG31       0.5346
     42  NH1       27.2220   63.7070  -25.0340 N.pl3  31  ARG31       0.1354
     43  NH2       26.3360   65.8350  -25.0800 N.pl3  31  ARG31       0.1354
     44  N         24.6150   59.8650  -12.1420 N.3    34  LEU34      -0.1245
     45  CA        23.4250   59.0570  -11.9330 C.3    34  LEU34       0.1561
     46  C         22.5430   59.4950  -10.7800 C.2    34  LEU34       0.2260
     47  O         21.5460   58.8490  -10.4810 O.2    34  LEU34      -0.2867
     48  CB        23.8040   57.5800  -11.7890 C.3    34  LEU34       0.0270
     49  CG        24.6320   57.0600  -12.9580 C.3    34  LEU34       0.0019
     50  CD1       24.9330   55.5750  -12.7700 C.3    34  LEU34       0.0001
     51  CD2       23.8610   57.3130  -14.2610 C.3    34  LEU34       0.0001
     52  N         20.3610   61.8910  -18.3520 N.3    40  VAL40      -0.1231
     53  CA        20.2160   60.8470  -19.3520 C.3    40  VAL40       0.1692
     54  C         20.5420   59.4510  -18.7990 C.2    40  VAL40       0.2592
     55  O         19.9160   58.4500  -19.1920 O.2    40  VAL40      -0.2718
     56  CB        21.1190   61.1490  -20.5750 C.3    40  VAL40       0.0266
     57  CG1       22.5920   61.1080  -20.1610 C.3    40  VAL40       0.0020
     58  CG2       20.8260   60.1620  -21.7160 C.3    40  VAL40       0.0020
     59  N         21.5140   59.3900  -17.8890 N.am   41  GLY41      -0.1957
     60  CA        21.9150   58.1210  -17.2890 C.3    41  GLY41       0.1869
     61  C         20.7660   57.4140  -16.5750 C.2    41  GLY41       0.2309
     62  O         20.4480   56.2730  -16.8960 O.2    41  GLY41      -0.2863
     63  N         18.0580   56.3620  -19.1950 N.3    44  LYS44      -0.1231
     64  CA        18.4290   55.2200  -20.0110 C.3    44  LYS44       0.1693
     65  C         18.4810   53.8940  -19.2420 C.2    44  LYS44       0.2591
     66  O         18.0140   52.8670  -19.7340 O.2    44  LYS44      -0.2718
     67  CB        19.7950   55.4380  -20.6490 C.3    44  LYS44       0.0285
     68  CG        20.2020   54.2970  -21.5440 C.3    44  LYS44       0.0035
     69  CD        19.5130   54.3770  -22.9200 C.3    44  LYS44       0.0206
     70  CE        17.9960   54.1520  -22.8790 C.3    44  LYS44       0.1093
     71  NZ        17.5860   52.7340  -22.5800 N.3    44  LYS44      -0.1314
     72  N         19.0810   53.9250  -18.0530 N.am   45  LEU45      -0.1980
     73  CA        19.2010   52.7210  -17.2370 C.3    45  LEU45       0.1596
     74  C         17.8100   52.2430  -16.8850 C.2    45  LEU45       0.2287
     75  O         17.5450   51.0450  -16.8810 O.2    45  LEU45      -0.2864
     76  CB        20.0140   53.0010  -15.9570 C.3    45  LEU45       0.0297
     77  CG        21.5040   53.2340  -16.2320 C.3    45  LEU45       0.0022
     78  CD1       22.2400   53.3490  -14.9230 C.3    45  LEU45       0.0001
     79  CD2       22.0640   52.0510  -17.0580 C.3    45  LEU45       0.0001
     80  N         27.4960   49.4040  -19.7550 N.3    72  TYR72      -0.1241
     81  CA        26.2420   49.7870  -19.1090 C.3    72  TYR72       0.1605
     82  C         25.0260   49.2530  -19.8760 C.2    72  TYR72       0.2264
     83  O         23.9970   48.9480  -19.2630 O.2    72  TYR72      -0.2867
     84  CB        26.1260   51.3120  -19.0030 C.3    72  TYR72       0.0534
     85  CG        25.7940   51.8860  -20.3590 C.ar   72  TYR72      -0.0201
     86  CD1       24.4700   52.0010  -20.7830 C.ar   72  TYR72      -0.0009
     87  CD2       26.8080   52.2610  -21.2340 C.ar   72  TYR72      -0.0009
     88  CE1       24.1630   52.4760  -22.0560 C.ar   72  TYR72       0.0417
     89  CE2       26.5170   52.7180  -22.5090 C.ar   72  TYR72       0.0417
     90  CZ        25.2020   52.8190  -22.9050 C.ar   72  TYR72       0.1957
     91  OH        24.9070   53.2630  -24.1650 O.3    72  TYR72      -0.2866
     92  N         27.2110   52.6430  -12.2190 N.3   113  TYR113     -0.1241
     93  CA        26.1770   52.1600  -13.1340 C.3   113  TYR113      0.1605
     94  C         25.6290   50.8190  -12.6320 C.2   113  TYR113      0.2264
     95  O         24.4230   50.5820  -12.6800 O.2   113  TYR113     -0.2867
     96  CB        26.7420   51.9900  -14.5710 C.3   113  TYR113      0.0534
     97  CG        27.0170   53.3090  -15.2740 C.ar  113  TYR113     -0.0201
     98  CD1       28.0500   54.1440  -14.8510 C.ar  113  TYR113     -0.0009
     99  CD2       26.2160   53.7400  -16.3330 C.ar  113  TYR113     -0.0009
    100  CE1       28.2780   55.3740  -15.4590 C.ar  113  TYR113      0.0417
    101  CE2       26.4330   54.9820  -16.9530 C.ar  113  TYR113      0.0417
    102  CZ        27.4600   55.7870  -16.5050 C.ar  113  TYR113      0.1957
    103  OH        27.6430   57.0280  -17.0550 O.3   113  TYR113     -0.2866
    104  N         24.1990   53.6150  -29.8220 N.3   169  PHE169     -0.1241
    105  CA        24.9540   54.6820  -30.4730 C.3   169  PHE169      0.1605
    106  C         25.9360   54.2300  -31.5430 C.2   169  PHE169      0.2264
    107  O         26.9290   54.9210  -31.7940 O.2   169  PHE169     -0.2867
    108  CB        25.7350   55.4870  -29.4280 C.3   169  PHE169      0.0534
    109  CG        24.8840   56.1100  -28.3730 C.ar  169  PHE169     -0.0203
    110  CD1       24.8900   55.6070  -27.0650 C.ar  169  PHE169     -0.0042
    111  CD2       24.1200   57.2350  -28.6600 C.ar  169  PHE169     -0.0042
    112  CE1       24.1520   56.2210  -26.0550 C.ar  169  PHE169     -0.0003
    113  CE2       23.3730   57.8680  -27.6610 C.ar  169  PHE169     -0.0003
    114  CZ        23.3890   57.3560  -26.3440 C.ar  169  PHE169     -0.0000
    115  N         24.0450   55.0800  -36.3540 N.3   172  GLU172     -0.1231
    116  CA        24.1240   56.4460  -36.8440 C.3   172  GLU172      0.1699
    117  C         25.5360   57.0300  -36.7900 C.2   172  GLU172      0.2592
    118  O         25.8760   57.8850  -37.6170 O.2   172  GLU172     -0.2718
    119  CB        23.1330   57.3760  -36.1150 C.3   172  GLU172      0.0402
    120  CG        23.4760   57.7400  -34.6780 C.3   172  GLU172      0.1161
    121  CD        23.1150   56.6410  -33.6880 C.2   172  GLU172      0.3649
    122  OE1       22.6770   55.5570  -34.1240 O.co2 172  GLU172     -0.2457
    123  OE2       23.2700   56.8610  -32.4710 O.co2 172  GLU172     -0.2457
    124  N         26.3660   56.5570  -35.8580 N.am  173  ALA173     -0.1980
    125  CA        27.7230   57.0970  -35.7190 C.3   173  ALA173      0.1597
    126  C         28.7720   56.5400  -36.6910 C.2   173  ALA173      0.2287
    127  O         29.9120   57.0020  -36.6990 O.2   173  ALA173     -0.2864
    128  CB        28.2160   56.9400  -34.2580 C.3   173  ALA173      0.0319
    129  N         21.7450   58.3250  -31.0050 N.3   203  ALA203     -0.1245
    130  CA        21.7250   59.7850  -30.9210 C.3   203  ALA203      0.1562
    131  C         20.7410   60.3980  -31.9240 C.2   203  ALA203      0.2260
    132  O         20.6300   59.9330  -33.0440 O.2   203  ALA203     -0.2867
    133  CB        23.1180   60.3310  -31.1790 C.3   203  ALA203      0.0290
    134  N         22.1520   64.3960  -34.6130 N.3   206  GLU206     -0.1245
    135  CA        23.5380   64.7090  -34.2880 C.3   206  GLU206      0.1567
    136  C         24.3670   64.6420  -35.5740 C.2   206  GLU206      0.2260
    137  O         24.0790   63.8230  -36.4410 O.2   206  GLU206     -0.2867
    138  CB        24.0760   63.7010  -33.2540 C.3   206  GLU206      0.0388
    139  CG        25.6010   63.7440  -33.0610 C.3   206  GLU206      0.1160
    140  CD        26.1390   62.6570  -32.1160 C.2   206  GLU206      0.3649
    141  OE1       25.9870   62.7880  -30.8880 O.co2 206  GLU206     -0.2457
    142  OE2       26.7110   61.6740  -32.6090 O.co2 206  GLU206     -0.2457
    143  N         30.6810   64.3190  -33.0280 N.3   209  TYR209     -0.1241
    144  CA        31.0000   64.0960  -31.6230 C.3   209  TYR209      0.1605
    145  C         32.5070   63.9280  -31.5340 C.2   209  TYR209      0.2264
    146  O         33.1610   63.6090  -32.5320 O.2   209  TYR209     -0.2867
    147  CB        30.2740   62.8660  -31.0420 C.3   209  TYR209      0.0534
    148  CG        30.8200   61.5170  -31.4650 C.ar  209  TYR209     -0.0201
    149  CD1       31.6230   60.7640  -30.6060 C.ar  209  TYR209     -0.0009
    150  CD2       30.4850   60.9640  -32.6980 C.ar  209  TYR209     -0.0009
    151  CE1       32.0660   59.4870  -30.9670 C.ar  209  TYR209      0.0417
    152  CE2       30.9250   59.7090  -33.0630 C.ar  209  TYR209      0.0417
    153  CZ        31.7130   58.9680  -32.1900 C.ar  209  TYR209      0.1957
    154  OH        32.1120   57.6980  -32.5440 O.3   209  TYR209     -0.2866
    155  N         28.5830   62.2370  -38.0120 N.3   218  VAL218     -0.1245
    156  CA        27.4330   61.3870  -37.7360 C.3   218  VAL218      0.1561
    157  C         26.2450   61.8010  -38.6080 C.2   218  VAL218      0.2260
    158  O         26.0200   62.9890  -38.8280 O.2   218  VAL218     -0.2867
    159  CB        27.0370   61.5520  -36.2410 C.3   218  VAL218      0.0252
    160  CG1       25.7880   60.7200  -35.9000 C.3   218  VAL218      0.0019
    161  CG2       28.2200   61.1690  -35.3630 C.3   218  VAL218      0.0019
    162  N         17.9620   66.0410  -24.8120 N.3   245  MET245     -0.1245
    163  CA        19.1570   66.4340  -24.0750 C.3   245  MET245      0.1570
    164  C         19.0000   67.8300  -23.4950 C.2   245  MET245      0.2261
    165  O         18.8490   68.7920  -24.2360 O.2   245  MET245     -0.2867
    166  CB        20.3810   66.3940  -24.9920 C.3   245  MET245      0.0387
    167  CG        21.7120   66.2990  -24.2530 C.3   245  MET245      0.0595
    168  SD        21.9490   64.7570  -23.2990 S.3   245  MET245     -0.1393
    169  CE        22.4470   63.6660  -24.5240 C.3   245  MET245      0.0692
    170  N         29.7510   67.1000  -28.4740 N.3   254  ASP254     -0.1239
    171  CA        28.9510   66.7360  -29.6490 C.3   254  ASP254      0.1674
    172  C         27.8240   67.7440  -29.8500 C.2   254  ASP254      0.2266
    173  O         27.7350   68.7280  -29.1240 O.2   254  ASP254     -0.2867
    174  CB        28.3490   65.3210  -29.4680 C.3   254  ASP254      0.1410
    175  CG        27.3950   65.2230  -28.2700 C.2   254  ASP254      0.3668
    176  OD1       27.2850   64.1140  -27.6910 O.co2 254  ASP254     -0.2456
    177  OD2       26.7500   66.2360  -27.9030 O.co2 254  ASP254     -0.2456
    178  N         24.5040   66.5190  -30.1710 N.3   256  VAL256     -0.1245
    179  CA        23.3380   65.6420  -30.0770 C.3   256  VAL256      0.1561
    180  C         22.1570   66.4090  -29.5160 C.2   256  VAL256      0.2260
    181  O         22.3130   67.2060  -28.5970 O.2   256  VAL256     -0.2867
    182  CB        23.6350   64.3890  -29.1800 C.3   256  VAL256      0.0252
    183  CG1       23.8450   64.8070  -27.7250 C.3   256  VAL256      0.0019
    184  CG2       22.5040   63.3830  -29.3080 C.3   256  VAL256      0.0019
    185  N         18.2590   61.5170  -27.3310 N.3   259  VAL259     -0.1245
    186  CA        18.6730   60.1200  -27.3950 C.3   259  VAL259      0.1561
    187  C         17.4020   59.3070  -27.6130 C.2   259  VAL259      0.2260
    188  O         16.3830   59.5680  -26.9700 O.2   259  VAL259     -0.2867
    189  CB        19.3540   59.6680  -26.0600 C.3   259  VAL259      0.0252
    190  CG1       19.6410   58.1510  -26.1000 C.3   259  VAL259      0.0019
    191  CG2       20.6310   60.4470  -25.8320 C.3   259  VAL259      0.0019
@<TRIPOS>BOND
     1   158   157    2
     2   157   156    1
     3   155   156    1
     4   156   159    1
     5   118   117    2
     6   116   117    1
     7   116   115    1
     8   116   119    1
     9   117   124   am
    10   127   126    2
    11   126   125    1
    12   137   136    2
    13   159   160    1
    14   159   161    1
    15   119   120    1
    16   124   125    1
    17   125   128    1
    18   136   135    1
    19   120   121    1
    20   134   135    1
    21   135   138    1
    22   122   121   ar
    23   121   123   ar
    24   138   139    1
    25   152   150   ar
    26   152   153   ar
    27   139   140    1
    28   132   131    2
    29   143   144    1
    30   150   148   ar
    31   142   140   ar
    32   154   153    1
    33   146   145    2
    34   153   151   ar
    35   140   141   ar
    36   131   130    1
    37   107   106    2
    38   144   145    1
    39   144   147    1
    40   106   105    1
    41   148   147    1
    42   148   149   ar
    43   133   130    1
    44   129   130    1
    45   151   149   ar
    46   105   104    1
    47   105   108    1
    48   178   179    1
    49   179   180    1
    50   179   182    1
    51   172   171    1
    52   172   173    2
    53   171   174    1
    54   171   170    1
    55   180   181    2
    56   174   175    1
    57   108   109    1
    58   184   182    1
    59   182   183    1
    60   111   109   ar
    61   111   113   ar
    62   109   110   ar
    63   175   177   ar
    64   175   176   ar
    65     9     7   ar
    66     9    11   ar
    67   113   114   ar
    68   187   186    1
    69   187   188    2
    70     7     6   ar
    71   186   185    1
    72   186   189    1
    73    12    11    1
    74   110   112   ar
    75    11    10   ar
    76     6     5    1
    77     6     8   ar
    78   114   112   ar
    79     5     2    1
    80    10     8   ar
    81   190   189    1
    82   189   191    1
    83    20    18   am
    84     2     1    1
    85     2     3    1
    86    19    18    2
    87    43    41    1
    88    42    41    1
    89   166   167    1
    90   166   163    1
    91    18    17    1
    92   162   163    1
    93   169   168    1
    94    41    40    2
    95   167   168    1
    96   165   164    2
    97    91    90    1
    98   163   164    1
    99     3     4    2
   100    32    31    1
   101    17    14    1
   102    40    39    1
   103    29    31   ar
   104    29    27   ar
   105    69    70    1
   106    69    68    1
   107    90    89   ar
   108    90    88   ar
   109    70    71    1
   110    31    30   ar
   111    89    87   ar
   112    13    14    1
   113    14    15    1
   114    39    38    1
   115    88    86   ar
   116    27    26   ar
   117    58    56    1
   118    30    28   ar
   119    68    67    1
   120    87    85   ar
   121    15    16    2
   122    15    21   am
   123    86    85   ar
   124    38    37    1
   125    67    64    1
   126    56    57    1
   127    56    53    1
   128    26    28   ar
   129    26    25    1
   130    85    84    1
   131    21    22    1
   132    64    65    1
   133    64    63    1
   134    82    83    2
   135    82    81    1
   136    37    34    1
   137    80    81    1
   138    66    65    2
   139    53    54    1
   140    53    52    1
   141    25    22    1
   142    65    72   am
   143    55    54    2
   144    22    23    1
   145    81    84    1
   146    54    59   am
   147    34    33    1
   148    34    35    1
   149    72    73    1
   150    59    60    1
   151    23    24    2
   152    35    36    2
   153    60    61    1
   154    73    74    1
   155    73    76    1
   156    79    77    1
   157   103   102    1
   158   101   102   ar
   159   101    99   ar
   160    62    61    2
   161    74    75    2
   162   102   100   ar
   163    99    97   ar
   164    77    76    1
   165    77    78    1
   166   100    98   ar
   167    97    98   ar
   168    97    96    1
   169    96    93    1
   170    51    49    1
   171    93    94    1
   172    93    92    1
   173    49    50    1
   174    49    48    1
   175    95    94    2
   176    44    45    1
   177    45    48    1
   178    45    46    1
   179    46    47    2
