@<TRIPOS>MOLECULE
tmp/2g8rA01.pdb
 106 103 0 0 0
SMALL
GASTEIGER

@<TRIPOS>ATOM
      1  N         30.7560   -3.8680   28.3420 N.3    12  HIS12      -0.1241
      2  CA        30.0340   -2.6810   27.8880 C.3    12  HIS12       0.1621
      3  C         28.5640   -2.5800   28.2450 C.2    12  HIS12       0.2264
      4  O         27.9640   -1.5340   28.0290 O.2    12  HIS12      -0.2867
      5  CB        30.2250   -2.5090   26.3790 C.3    12  HIS12       0.0745
      6  CG        31.6360   -2.2120   25.9940 C.ar   12  HIS12       0.0817
      7  ND1       32.3190   -1.1090   26.4620 N.ar   12  HIS12      -0.2268
      8  CD2       32.5020   -2.8850   25.2020 C.ar   12  HIS12       0.1154
      9  CE1       33.5340   -1.0980   25.9460 C.ar   12  HIS12       0.1986
     10  NE2       33.6760   -2.1760   25.1940 N.ar   12  HIS12      -0.2212
     11  N         42.4320   -0.7690   32.3600 N.3    41  LYS41      -0.1245
     12  CA        41.8910   -0.3410   31.0720 C.3    41  LYS41       0.1561
     13  C         41.6650    1.1670   31.1990 C.2    41  LYS41       0.2260
     14  O         40.9590    1.6010   32.0990 O.2    41  LYS41      -0.2867
     15  CB        40.5960   -1.0720   30.7090 C.3    41  LYS41       0.0271
     16  CG        40.1600   -0.8170   29.2720 C.3    41  LYS41       0.0035
     17  CD        38.9810   -1.6580   28.8580 C.3    41  LYS41       0.0206
     18  CE        38.4910   -1.2190   27.4830 C.3    41  LYS41       0.1093
     19  NZ        37.3930   -2.0760   26.9960 N.3    41  LYS41      -0.1314
     20  N         40.1840    3.6200   29.3110 N.3    43  VAL43      -0.1231
     21  CA        38.8480    4.1600   29.0100 C.3    43  VAL43       0.1692
     22  C         37.8970    3.0100   28.7170 C.2    43  VAL43       0.2592
     23  O         38.2590    2.0790   27.9880 O.2    43  VAL43      -0.2718
     24  CB        38.8480    5.1150   27.7770 C.3    43  VAL43       0.0266
     25  CG1       37.4440    5.7150   27.5330 C.3    43  VAL43       0.0020
     26  CG2       39.8900    6.2150   27.9230 C.3    43  VAL43       0.0020
     27  N         36.6850    3.0810   29.2700 N.am   44  ASN44      -0.1960
     28  CA        35.6450    2.0880   28.9770 C.3    44  ASN44       0.1819
     29  C         34.2530    2.6610   29.1840 C.2    44  ASN44       0.2621
     30  O         34.0110    3.3590   30.1670 O.2    44  ASN44      -0.2715
     31  CB        35.8420    0.8470   29.8520 C.3    44  ASN44       0.1195
     32  CG        34.9530   -0.2950   29.4510 C.2    44  ASN44       0.2630
     33  OD1       35.2570   -1.0330   28.5050 O.2    44  ASN44      -0.2716
     34  ND2       33.8620   -0.4750   30.1830 N.am   44  ASN44      -0.0877
     35  N         33.3400    2.3530   28.2700 N.am   45  THR45      -0.1951
     36  CA        31.9640    2.8580   28.3390 C.3    45  THR45       0.1897
     37  C         30.9860    1.7350   28.6810 C.2    45  THR45       0.2313
     38  O         31.0530    0.6580   28.0950 O.2    45  THR45      -0.2863
     39  CB        31.5600    3.5230   27.0050 C.3    45  THR45       0.1794
     40  OG1       32.4840    4.5850   26.7130 O.3    45  THR45      -0.2208
     41  CG2       30.1120    4.0840   27.0660 C.3    45  THR45       0.0378
     42  N         36.5110    3.3840   13.1710 N.3    66  LYS66      -0.1231
     43  CA        37.7870    4.0620   13.3760 C.3    66  LYS66       0.1693
     44  C         38.9650    3.3340   12.7340 C.2    66  LYS66       0.2592
     45  O         39.9060    3.9750   12.3000 O.2    66  LYS66      -0.2718
     46  CB        38.0390    4.2680   14.8680 C.3    66  LYS66       0.0285
     47  CG        37.2500    5.4430   15.4240 C.3    66  LYS66       0.0035
     48  CD        37.3490    5.5030   16.9350 C.3    66  LYS66       0.0206
     49  CE        36.4740    6.6210   17.4640 C.3    66  LYS66       0.1093
     50  NZ        36.6070    6.7500   18.9440 N.3    66  LYS66      -0.1314
     51  N         38.8880    2.0050   12.6490 N.am   67  ASN67      -0.1974
     52  CA        39.9670    1.2170   12.0450 C.3    67  ASN67       0.1688
     53  C         39.8950    1.1090   10.5230 C.2    67  ASN67       0.2292
     54  O         40.7150    0.4090    9.9090 O.2    67  ASN67      -0.2864
     55  CB        40.0670   -0.1790   12.6790 C.3    67  ASN67       0.1181
     56  CG        38.9170   -1.0990   12.3030 C.2    67  ASN67       0.2629
     57  OD1       37.9910   -0.7120   11.6130 O.2    67  ASN67      -0.2716
     58  ND2       38.9830   -2.3430   12.7760 N.am   67  ASN67      -0.0877
     59  N         30.7270    6.8680   30.9150 N.3    83  ASP83      -0.1239
     60  CA        32.1190    6.9010   30.5140 C.3    83  ASP83       0.1674
     61  C         32.9990    6.6980   31.7520 C.2    83  ASP83       0.2266
     62  O         32.8160    7.3830   32.7710 O.2    83  ASP83      -0.2867
     63  CB        32.4080    8.2480   29.8460 C.3    83  ASP83       0.1410
     64  CG        33.8710    8.4630   29.5590 C.2    83  ASP83       0.3668
     65  OD1       34.3150    8.1090   28.4490 O.co2  83  ASP83      -0.2456
     66  OD2       34.5770    9.0010   30.4370 O.co2  83  ASP83      -0.2456
     67  N         32.3330   -4.8220   19.5280 N.3   119  HIS119     -0.1226
     68  CA        33.3410   -3.7960   19.8210 C.3   119  HIS119      0.1752
     69  C         32.6570   -2.4590   19.9960 C.2   119  HIS119      0.2596
     70  O         31.7450   -2.1150   19.2280 O.2   119  HIS119     -0.2718
     71  CB        34.3700   -3.7660   18.6870 C.3   119  HIS119      0.0759
     72  CG        35.1520   -2.4930   18.5780 C.ar  119  HIS119      0.0818
     73  ND1       36.3470   -2.3020   19.2380 N.ar  119  HIS119     -0.2268
     74  CD2       34.9430   -1.3740   17.8430 C.ar  119  HIS119      0.1154
     75  CE1       36.8230   -1.1040   18.9400 C.ar  119  HIS119      0.1986
     76  NE2       35.9950   -0.5290   18.0860 N.ar  119  HIS119     -0.2212
     77  N         33.0880   -1.7160   21.0060 N.am  120  PHE120     -0.1962
     78  CA        32.5920   -0.3660   21.2140 C.3   120  PHE120      0.1771
     79  C         33.5510    0.6190   20.5610 C.2   120  PHE120      0.2620
     80  O         34.7130    0.7180   20.9700 O.2   120  PHE120     -0.2715
     81  CB        32.4820   -0.0700   22.7110 C.3   120  PHE120      0.0574
     82  CG        31.7020    1.1590   23.0040 C.ar  120  PHE120     -0.0200
     83  CD1       32.3260    2.4090   23.0300 C.ar  120  PHE120     -0.0042
     84  CD2       30.3340    1.0760   23.2230 C.ar  120  PHE120     -0.0042
     85  CE1       31.5900    3.5600   23.2830 C.ar  120  PHE120     -0.0003
     86  CE2       29.5930    2.2250   23.4850 C.ar  120  PHE120     -0.0003
     87  CZ        30.2270    3.4630   23.5160 C.ar  120  PHE120     -0.0000
     88  N         33.0880    1.3450   19.5420 N.am  121  ASP121     -0.1957
     89  CA        34.0020    2.2010   18.7800 C.3   121  ASP121      0.1840
     90  C         34.0580    3.6210   19.3170 C.2   121  ASP121      0.2622
     91  O         35.1290    4.2100   19.4020 O.2   121  ASP121     -0.2715
     92  CB        33.6330    2.2060   17.2930 C.3   121  ASP121      0.1450
     93  CG        34.8600    2.3260   16.3780 C.2   121  ASP121      0.3671
     94  OD1       35.8860    1.6530   16.6280 O.co2 121  ASP121     -0.2456
     95  OD2       34.7710    3.0750   15.3910 O.co2 121  ASP121     -0.2456
     96  N         32.9020    4.1560   19.6950 N.am  122  ALA122     -0.1963
     97  CA        32.8190    5.5580   20.0870 C.3   122  ALA122      0.1728
     98  C         31.4640    5.9050   20.6640 C.2   122  ALA122      0.2616
     99  O         30.4870    5.1850   20.4830 O.2   122  ALA122     -0.2715
    100  CB        33.1080    6.4530   18.8970 C.3   122  ALA122      0.0334
    101  N         31.4400    7.0220   21.3750 N.am  123  SER123     -0.1950
    102  CA        30.1920    7.6870   21.7340 C.3   123  SER123      0.1924
    103  C         30.2620    9.1060   21.1740 C.2   123  SER123      0.2314
    104  O         31.3210    9.7470   21.2230 O.2   123  SER123     -0.2863
    105  CB        29.9790    7.6820   23.2400 C.3   123  SER123      0.2116
    106  OG        30.9170    8.5160   23.9010 O.3   123  SER123     -0.2180
@<TRIPOS>BOND
     1    54    53    2
     2    53    52    1
     3    57    56    2
     4    52    51    1
     5    52    55    1
     6    45    44    2
     7    56    55    1
     8    56    58   am
     9    51    44   am
    10    44    43    1
    11    42    43    1
    12    43    46    1
    13    46    47    1
    14    95    93   ar
    15    47    48    1
    16    93    94   ar
    17    93    92    1
    18    48    49    1
    19    92    89    1
    20    49    50    1
    21    74    76   ar
    22    74    72   ar
    23    76    75   ar
    24    72    71    1
    25    72    73   ar
    26    71    68    1
    27    89    90    1
    28    89    88    1
    29   100    97    1
    30    75    73   ar
    31    70    69    2
    32    90    91    2
    33    90    96   am
    34    67    68    1
    35    88    79   am
    36    96    97    1
    37    68    69    1
    38    69    77   am
    39    97    98    1
    40    99    98    2
    41    79    80    2
    42    79    78    1
    43    98   101   am
    44    77    78    1
    45   103   104    2
    46   103   102    1
    47    78    81    1
    48   101   102    1
    49   102   105    1
    50    81    82    1
    51    82    83   ar
    52    82    84   ar
    53    83    85   ar
    54    84    86   ar
    55   105   106    1
    56    85    87   ar
    57    86    87   ar
    58    10     8   ar
    59    10     9   ar
    60     8     6   ar
    61     9     7   ar
    62     6     5    1
    63     6     7   ar
    64     5     2    1
    65    40    39    1
    66    19    18    1
    67    39    41    1
    68    39    36    1
    69    18    17    1
    70    25    24    1
    71    24    26    1
    72    24    21    1
    73     2     3    1
    74     2     1    1
    75    23    22    2
    76     4     3    2
    77    38    37    2
    78    35    36    1
    79    35    29   am
    80    36    37    1
    81    65    64   ar
    82    33    32    2
    83    22    21    1
    84    22    27   am
    85    17    16    1
    86    28    29    1
    87    28    27    1
    88    28    31    1
    89    21    20    1
    90    29    30    2
    91    16    15    1
    92    32    31    1
    93    32    34   am
    94    64    63    1
    95    64    66   ar
    96    63    60    1
    97    60    59    1
    98    60    61    1
    99    15    12    1
   100    12    13    1
   101    12    11    1
   102    13    14    2
   103    61    62    2
