@<TRIPOS>MOLECULE
tmp/2g8rA00.pdb
 84 75 0 0 0
SMALL
GASTEIGER

@<TRIPOS>ATOM
      1  N         33.1070  -13.2030   21.5470 N.3     4  ALA4       -0.1245
      2  CA        33.2600  -11.7620   21.3680 C.3     4  ALA4        0.1562
      3  C         31.9990  -11.0360   21.8230 C.2     4  ALA4        0.2260
      4  O         32.0760   -9.9830   22.4700 O.2     4  ALA4       -0.2867
      5  CB        33.5520  -11.4520   19.9180 C.3     4  ALA4        0.0290
      6  N         32.0040  -11.0410   25.5530 N.3     7  LYS7       -0.1245
      7  CA        33.0020  -10.0660   25.9980 C.3     7  LYS7        0.1561
      8  C         32.4280   -8.6560   25.9210 C.2     7  LYS7        0.2260
      9  O         32.5580   -7.8780   26.8760 O.2     7  LYS7       -0.2867
     10  CB        34.2930  -10.1720   25.1770 C.3     7  LYS7        0.0271
     11  CG        35.4220   -9.2590   25.6590 C.3     7  LYS7        0.0035
     12  CD        36.6630   -9.4350   24.7970 C.3     7  LYS7        0.0206
     13  CE        37.6400   -8.2810   24.9900 C.3     7  LYS7        0.1093
     14  NZ        38.8360   -8.4000   24.0950 N.3     7  LYS7       -0.1314
     15  N         34.1000    2.5710   10.6340 N.3    65  CYS65      -0.1235
     16  CA        34.7880    2.2900   11.8940 C.3    65  CYS65       0.1677
     17  C         36.0660    3.0960   11.9570 C.2    65  CYS65       0.2270
     18  O         36.6670    3.3880   10.9320 O.2    65  CYS65      -0.2867
     19  CB        35.1740    0.8270   11.9790 C.3    65  CYS65       0.0956
     20  SG        33.7490   -0.2460   11.8770 S.3    65  CYS65      -0.0801
     21  N         38.8880    2.0050   12.6490 N.3    67  ASN67      -0.1240
     22  CA        39.9670    1.2170   12.0450 C.3    67  ASN67       0.1653
     23  C         39.8950    1.1090   10.5230 C.2    67  ASN67       0.2266
     24  O         40.7150    0.4090    9.9090 O.2    67  ASN67      -0.2867
     25  CB        40.0670   -0.1790   12.6790 C.3    67  ASN67       0.1155
     26  CG        38.9170   -1.0990   12.3030 C.2    67  ASN67       0.2627
     27  OD1       37.9910   -0.7120   11.6130 O.2    67  ASN67      -0.2716
     28  ND2       38.9830   -2.3430   12.7760 N.am   67  ASN67      -0.0877
     29  N         37.3580   -0.1700    8.8080 N.3    69  GLN69      -0.1245
     30  CA        36.3820   -1.1620    8.3890 C.3    69  GLN69       0.1566
     31  C         34.9970   -0.5250    8.2350 C.2    69  GLN69       0.2260
     32  O         34.7800    0.6220    8.6500 O.2    69  GLN69      -0.2867
     33  CB        36.3750   -2.3440    9.3600 C.3    69  GLN69       0.0367
     34  CG        37.7090   -3.0960    9.3460 C.3    69  GLN69       0.0905
     35  CD        37.9910   -3.7700    8.0180 C.2    69  GLN69       0.2608
     36  OE1       38.7580   -3.2570    7.1830 O.2    69  GLN69      -0.2717
     37  NE2       37.3800   -4.9340    7.8110 N.am   69  GLN69      -0.0878
     38  N         32.0020   -2.0910    9.1930 N.3    71  ASN71      -0.1240
     39  CA        30.9900   -2.8070    9.9800 C.3    71  ASN71       0.1653
     40  C         30.6120   -2.1160   11.2850 C.2    71  ASN71       0.2266
     41  O         30.3320   -2.7860   12.2730 O.2    71  ASN71      -0.2867
     42  CB        31.4200   -4.2620   10.2540 C.3    71  ASN71       0.1155
     43  CG        32.6720   -4.3550   11.1090 C.2    71  ASN71       0.2627
     44  OD1       33.6630   -3.7030   10.8320 O.2    71  ASN71      -0.2716
     45  ND2       32.6420   -5.2240   12.1270 N.am   71  ASN71      -0.0877
     46  N         30.8500   -1.9240   16.5460 N.3   109  ALA109     -0.1245
     47  CA        31.1650   -2.8100   15.4290 C.3   109  ALA109      0.1562
     48  C         30.4220   -4.1120   15.6760 C.2   109  ALA109      0.2260
     49  O         30.3390   -4.5920   16.8250 O.2   109  ALA109     -0.2867
     50  CB        32.6500   -3.0630   15.3410 C.3   109  ALA109      0.0290
     51  N         29.5250   -8.2200   14.1590 N.3   111  GLU111     -0.1245
     52  CA        30.0770   -9.3410   13.3970 C.3   111  GLU111      0.1567
     53  C         29.2800  -10.5790   13.7260 C.2   111  GLU111      0.2260
     54  O         28.6350  -10.6510   14.7820 O.2   111  GLU111     -0.2867
     55  CB        31.5260   -9.6340   13.7900 C.3   111  GLU111      0.0388
     56  CG        32.5540   -8.6140   13.3270 C.3   111  GLU111      0.1160
     57  CD        33.9610   -8.9770   13.7590 C.2   111  GLU111      0.3649
     58  OE1       34.0950   -9.7180   14.7670 O.co2 111  GLU111     -0.2457
     59  OE2       34.9180   -8.5220   13.0770 O.co2 111  GLU111     -0.2457
     60  N         30.2680   -6.4820   18.8990 N.3   118  VAL118     -0.1231
     61  CA        31.4940   -7.1160   19.3730 C.3   118  VAL118      0.1692
     62  C         32.5640   -6.1040   19.8000 C.2   118  VAL118      0.2592
     63  O         33.5780   -6.4920   20.3750 O.2   118  VAL118     -0.2718
     64  CB        32.0730   -8.1230   18.3390 C.3   118  VAL118      0.0266
     65  CG1       31.1010   -9.2850   18.1130 C.3   118  VAL118      0.0020
     66  CG2       32.3710   -7.4380   16.9860 C.3   118  VAL118      0.0020
     67  N         32.3330   -4.8220   19.5280 N.am  119  HIS119     -0.1976
     68  CA        33.3410   -3.7960   19.8210 C.3   119  HIS119      0.1656
     69  C         32.6570   -2.4590   19.9960 C.2   119  HIS119      0.2291
     70  O         31.7450   -2.1150   19.2280 O.2   119  HIS119     -0.2864
     71  CB        34.3700   -3.7660   18.6870 C.3   119  HIS119      0.0771
     72  CG        35.1520   -2.4930   18.5780 C.ar  119  HIS119      0.0820
     73  ND1       36.3470   -2.3020   19.2380 N.ar  119  HIS119     -0.2267
     74  CD2       34.9430   -1.3740   17.8430 C.ar  119  HIS119      0.1154
     75  CE1       36.8230   -1.1040   18.9400 C.ar  119  HIS119      0.1986
     76  NE2       35.9950   -0.5290   18.0860 N.ar  119  HIS119     -0.2212
     77  N         33.0880    1.3450   19.5420 N.3   121  ASP121     -0.1239
     78  CA        34.0020    2.2010   18.7800 C.3   121  ASP121      0.1674
     79  C         34.0580    3.6210   19.3170 C.2   121  ASP121      0.2266
     80  O         35.1290    4.2100   19.4020 O.2   121  ASP121     -0.2867
     81  CB        33.6330    2.2060   17.2930 C.3   121  ASP121      0.1410
     82  CG        34.8600    2.3260   16.3780 C.2   121  ASP121      0.3668
     83  OD1       35.8860    1.6530   16.6280 O.co2 121  ASP121     -0.2456
     84  OD2       34.7710    3.0750   15.3910 O.co2 121  ASP121     -0.2456
@<TRIPOS>BOND
     1    36    35    2
     2    37    35   am
     3    35    34    1
     4    31    30    1
     5    31    32    2
     6    30    29    1
     7    30    33    1
     8    38    39    1
     9    34    33    1
    10    24    23    2
    11    39    42    1
    12    39    40    1
    13    42    43    1
    14    23    22    1
    15    15    16    1
    16    44    43    2
    17    18    17    2
    18    43    45   am
    19    40    41    2
    20    27    26    2
    21    20    19    1
    22    16    17    1
    23    16    19    1
    24    22    21    1
    25    22    25    1
    26    26    25    1
    27    26    28   am
    28    59    57   ar
    29    56    57    1
    30    56    55    1
    31    52    53    1
    32    52    55    1
    33    52    51    1
    34    53    54    2
    35    57    58   ar
    36    50    47    1
    37    84    82   ar
    38    47    48    1
    39    47    46    1
    40    48    49    2
    41    82    83   ar
    42    82    81    1
    43    66    64    1
    44    81    78    1
    45    74    76   ar
    46    74    72   ar
    47    76    75   ar
    48    65    64    1
    49    64    61    1
    50    72    71    1
    51    72    73   ar
    52    71    68    1
    53    78    79    1
    54    78    77    1
    55    60    61    1
    56    75    73   ar
    57    70    69    2
    58    79    80    2
    59    61    62    1
    60    67    62   am
    61    67    68    1
    62    62    63    2
    63    68    69    1
    64     5     2    1
    65     2     1    1
    66     2     3    1
    67     3     4    2
    68    14    13    1
    69    12    13    1
    70    12    11    1
    71    10    11    1
    72    10     7    1
    73     6     7    1
    74     8     7    1
    75     8     9    2
