@<TRIPOS>MOLECULE
tmp/2g8xB00.pdb
 94 93 0 0 0
SMALL
GASTEIGER

@<TRIPOS>ATOM
      1  N         22.7570   -2.6610    4.1770 N.3    57  GLU57      -0.1245
      2  CA        21.6320   -3.5100    4.5700 C.3    57  GLU57       0.1567
      3  C         20.5440   -2.6580    5.2560 C.2    57  GLU57       0.2260
      4  O         19.3550   -2.8520    5.0050 O.2    57  GLU57      -0.2867
      5  CB        22.0710   -4.6680    5.4670 C.3    57  GLU57       0.0388
      6  CG        20.9360   -5.6490    5.7610 C.3    57  GLU57       0.1160
      7  CD        21.2010   -6.5220    6.9630 C.2    57  GLU57       0.3649
      8  OE1       21.8220   -6.0440    7.9460 O.co2  57  GLU57      -0.2457
      9  OE2       20.7730   -7.6870    6.9310 O.co2  57  GLU57      -0.2457
     10  N         25.7420  -10.5980    1.9190 N.3    78  ILE78      -0.1231
     11  CA        25.3290  -11.1820    3.2000 C.3    78  ILE78       0.1692
     12  C         24.0170  -11.9950    3.1670 C.2    78  ILE78       0.2592
     13  O         23.8130  -12.8530    4.0210 O.2    78  ILE78      -0.2718
     14  CB        25.2710  -10.0970    4.3150 C.3    78  ILE78       0.0266
     15  CG1       24.2030   -9.0600    4.0260 C.3    78  ILE78       0.0019
     16  CG2       26.6400   -9.3920    4.4820 C.3    78  ILE78       0.0020
     17  CD1       24.1230   -7.9100    5.0660 C.3    78  ILE78       0.0001
     18  N         23.1510  -11.7410    2.1900 N.am   79  TRP79      -0.1976
     19  CA        21.8500  -12.4400    2.0690 C.3    79  TRP79       0.1640
     20  C         21.7580  -13.4770    0.9360 C.2    79  TRP79       0.2290
     21  O         20.7010  -14.0970    0.7190 O.2    79  TRP79      -0.2864
     22  CB        20.7230  -11.4180    1.9010 C.3    79  TRP79       0.0576
     23  CG        20.2850  -10.7860    3.2060 C.ar   79  TRP79       0.0006
     24  CD1       20.6000   -9.5380    3.6850 C.ar   79  TRP79       0.0946
     25  CD2       19.4240  -11.3810    4.1670 C.ar   79  TRP79       0.0152
     26  NE1       19.9920   -9.3320    4.9150 N.ar   79  TRP79      -0.2442
     27  CE2       19.2730  -10.4610    5.2320 C.ar   79  TRP79       0.0810
     28  CE3       18.8010  -12.6350    4.2590 C.ar   79  TRP79       0.0012
     29  CZ2       18.4900  -10.7460    6.3590 C.ar   79  TRP79       0.0191
     30  CZ3       18.0200  -12.9150    5.3740 C.ar   79  TRP79       0.0001
     31  CH2       17.8600  -11.9650    6.4010 C.ar   79  TRP79       0.0015
     32  N         20.2910  -17.1110    1.1150 N.3    82  TRP82      -0.1241
     33  CA        18.9180  -17.2080    1.5940 C.3    82  TRP82       0.1605
     34  C         17.9220  -16.8040    0.5330 C.2    82  TRP82       0.2264
     35  O         16.7630  -17.1660    0.6070 O.2    82  TRP82      -0.2867
     36  CB        18.7420  -16.3590    2.8460 C.3    82  TRP82       0.0550
     37  CG        19.5240  -16.8820    3.9840 C.ar   82  TRP82       0.0003
     38  CD1       20.8040  -16.5330    4.3520 C.ar   82  TRP82       0.0946
     39  CD2       19.0870  -17.8720    4.9220 C.ar   82  TRP82       0.0152
     40  NE1       21.1800  -17.2510    5.4750 N.ar   82  TRP82      -0.2442
     41  CE2       20.1430  -18.0780    5.8390 C.ar   82  TRP82       0.0810
     42  CE3       17.9080  -18.6140    5.0680 C.ar   82  TRP82       0.0012
     43  CZ2       20.0420  -18.9860    6.8990 C.ar   82  TRP82       0.0191
     44  CZ3       17.8060  -19.5160    6.1270 C.ar   82  TRP82       0.0001
     45  CH2       18.8710  -19.6930    7.0300 C.ar   82  TRP82       0.0015
     46  N         13.7670  -16.7220    6.0810 N.3   142  LEU142     -0.1245
     47  CA        14.1650  -17.0370    7.4380 C.3   142  LEU142      0.1561
     48  C         13.3290  -16.1990    8.4070 C.2   142  LEU142      0.2260
     49  O         13.0730  -15.0300    8.1330 O.2   142  LEU142     -0.2867
     50  CB        15.6660  -16.7220    7.5650 C.3   142  LEU142      0.0270
     51  CG        16.2360  -16.1820    8.8720 C.3   142  LEU142      0.0019
     52  CD1       17.5300  -16.8540    9.2260 C.3   142  LEU142      0.0001
     53  CD2       16.4260  -14.6550    8.7780 C.3   142  LEU142      0.0001
     54  N         16.6030  -10.4920   14.5280 N.3   146  HIS146     -0.1241
     55  CA        16.3720   -9.2630   15.2600 C.3   146  HIS146      0.1621
     56  C         14.8670   -8.9610   15.1400 C.2   146  HIS146      0.2264
     57  O         14.4390   -8.4560   14.1290 O.2   146  HIS146     -0.2867
     58  CB        17.3260   -8.1220   14.8350 C.3   146  HIS146      0.0745
     59  CG        17.4680   -7.8820   13.3580 C.ar  146  HIS146      0.0817
     60  ND1       18.3570   -8.5780   12.5690 N.ar  146  HIS146     -0.2268
     61  CD2       16.9500   -6.9120   12.5670 C.ar  146  HIS146      0.1154
     62  CE1       18.3240   -8.0980   11.3380 C.ar  146  HIS146      0.1986
     63  NE2       17.4960   -7.0670   11.3170 N.ar  146  HIS146     -0.2212
     64  N         29.8160  -14.0940   14.7520 N.3   171  LEU171     -0.1231
     65  CA        29.6690  -13.5350   13.4070 C.3   171  LEU171      0.1693
     66  C         28.5650  -12.5050   13.3240 C.2   171  LEU171      0.2592
     67  O         28.7330  -11.4510   12.7120 O.2   171  LEU171     -0.2718
     68  CB        29.3450  -14.6610   12.4270 C.3   171  LEU171      0.0284
     69  CG        30.2160  -14.8720   11.1860 C.3   171  LEU171      0.0019
     70  CD1       31.6890  -14.8200   11.5390 C.3   171  LEU171      0.0001
     71  CD2       29.8410  -16.2490   10.5820 C.3   171  LEU171      0.0001
     72  N         27.4240  -12.8150   13.9280 N.am  172  GLY172     -0.1957
     73  CA        26.2150  -12.0030   13.7400 C.3   172  GLY172      0.1869
     74  C         26.1500  -10.7580   14.5870 C.2   172  GLY172      0.2309
     75  O         25.8300   -9.6630   14.0970 O.2   172  GLY172     -0.2863
     76  N         27.7380   -7.1630   13.8670 N.3   175  PHE175     -0.1227
     77  CA        26.9700   -6.6140   12.7550 C.3   175  PHE175      0.1736
     78  C         25.6310   -6.0330   13.2580 C.2   175  PHE175      0.2595
     79  O         25.2900   -4.8730   12.9550 O.2   175  PHE175     -0.2718
     80  CB        26.7750   -7.7490   11.7160 C.3   175  PHE175      0.0547
     81  CG        26.4360   -7.2760   10.3180 C.ar  175  PHE175     -0.0202
     82  CD1       25.1690   -6.7440   10.0420 C.ar  175  PHE175     -0.0042
     83  CD2       27.3710   -7.3860    9.2900 C.ar  175  PHE175     -0.0042
     84  CE1       24.8370   -6.3210    8.7380 C.ar  175  PHE175     -0.0003
     85  CE2       27.0560   -6.9790    7.9830 C.ar  175  PHE175     -0.0003
     86  CZ        25.7800   -6.4340    7.7220 C.ar  175  PHE175     -0.0000
     87  N         24.8650   -6.8120   14.0180 N.am  176  ASN176     -0.1974
     88  CA        23.5460   -6.3510   14.5560 C.3   176  ASN176      0.1688
     89  C         23.6620   -5.1040   15.4280 C.2   176  ASN176      0.2292
     90  O         22.8320   -4.2030   15.3810 O.2   176  ASN176     -0.2864
     91  CB        22.9080   -7.4490   15.4110 C.3   176  ASN176      0.1181
     92  CG        22.5130   -8.6800   14.5990 C.2   176  ASN176      0.2629
     93  OD1       21.8860   -8.5640   13.5380 O.2   176  ASN176     -0.2716
     94  ND2       22.8940   -9.8680   15.0860 N.am  176  ASN176     -0.0877
@<TRIPOS>BOND
     1    34    35    2
     2    34    33    1
     3    21    20    2
     4    20    19    1
     5    32    33    1
     6    33    36    1
     7    22    19    1
     8    22    23    1
     9    10    11    1
    10    19    18    1
    11    18    12   am
    12    36    37    1
    13    12    11    1
    14    12    13    2
    15    11    14    1
    16    23    24   ar
    17    23    25   ar
    18    24    26   ar
    19    37    38   ar
    20    37    39   ar
    21    15    14    1
    22    15    17    1
    23    25    28   ar
    24    25    27   ar
    25     1     2    1
    26    28    30   ar
    27    14    16    1
    28    38    40   ar
    29     2     3    1
    30     2     5    1
    31    26    27   ar
    32    39    42   ar
    33    39    41   ar
    34     4     3    2
    35    42    44   ar
    36    27    29   ar
    37    30    31   ar
    38     5     6    1
    39    40    41   ar
    40     6     7    1
    41    41    43   ar
    42    46    47    1
    43    44    45   ar
    44    29    31   ar
    45    43    45   ar
    46     9     7   ar
    47     7     8   ar
    48    47    50    1
    49    47    48    1
    50    50    51    1
    51    86    85   ar
    52    86    84   ar
    53    85    83   ar
    54    49    48    2
    55    84    82   ar
    56    53    51    1
    57    51    52    1
    58    83    81   ar
    59    82    81   ar
    60    81    80    1
    61    71    69    1
    62    69    70    1
    63    69    68    1
    64    63    62   ar
    65    63    61   ar
    66    62    60   ar
    67    80    77    1
    68    68    65    1
    69    61    59   ar
    70    60    59   ar
    71    67    66    2
    72    77    78    1
    73    77    76    1
    74    79    78    2
    75    78    87   am
    76    66    65    1
    77    66    72   am
    78    59    58    1
    79    65    64    1
    80    93    92    2
    81    73    72    1
    82    73    74    1
    83    87    88    1
    84    75    74    2
    85    57    56    2
    86    54    55    1
    87    88    91    1
    88    88    89    1
    89    92    94   am
    90    92    91    1
    91    58    55    1
    92    56    55    1
    93    90    89    2
