@<TRIPOS>MOLECULE
tmp/2g8yA00.pdb
 223 215 0 0 0
SMALL
GASTEIGER

@<TRIPOS>ATOM
      1  N         59.4960   70.1460   15.6200 N.3    42  HIS42      -0.1241
      2  CA        59.5010   69.2410   14.4680 C.3    42  HIS42       0.1621
      3  C         58.2260   69.3930   13.6420 C.2    42  HIS42       0.2264
      4  O         57.3340   68.5170   13.6330 O.2    42  HIS42      -0.2867
      5  CB        59.7290   67.7990   14.9130 C.3    42  HIS42       0.0745
      6  CG        61.0830   67.5890   15.4910 C.ar   42  HIS42       0.0817
      7  ND1       62.2280   67.6210   14.7260 N.ar   42  HIS42      -0.2268
      8  CD2       61.4920   67.4210   16.7700 C.ar   42  HIS42       0.1154
      9  CE1       63.2830   67.4580   15.5060 C.ar   42  HIS42       0.1986
     10  NE2       62.8610   67.3210   16.7490 N.ar   42  HIS42      -0.2212
     11  N         56.1050   67.0890   11.2290 N.3    45  HIS45      -0.1241
     12  CA        55.2680   66.0450   11.8440 C.3    45  HIS45       0.1621
     13  C         54.1340   66.5890   12.6790 C.2    45  HIS45       0.2264
     14  O         53.4940   65.8320   13.4020 O.2    45  HIS45      -0.2867
     15  CB        56.1550   65.0850   12.6460 C.3    45  HIS45       0.0745
     16  CG        57.2050   64.4900   11.7890 C.ar   45  HIS45       0.0817
     17  ND1       56.9270   63.4850   10.8950 N.ar   45  HIS45      -0.2268
     18  CD2       58.4720   64.8780   11.5410 C.ar   45  HIS45       0.1154
     19  CE1       58.0020   63.2320   10.1730 C.ar   45  HIS45       0.1986
     20  NE2       58.9540   64.0650   10.5470 N.ar   45  HIS45      -0.2212
     21  N         51.4150   56.5700    9.1210 N.3   115  HIS115     -0.1241
     22  CA        52.4610   57.4610    9.6370 C.3   115  HIS115      0.1621
     23  C         52.4760   57.6700   11.1550 C.2   115  HIS115      0.2264
     24  O         51.5210   58.2250   11.7310 O.2   115  HIS115     -0.2867
     25  CB        52.2780   58.8080    8.9460 C.3   115  HIS115      0.0745
     26  CG        53.4030   59.7670    9.1520 C.ar  115  HIS115      0.0817
     27  ND1       53.1950   61.0890    9.4880 N.ar  115  HIS115     -0.2268
     28  CD2       54.7440   59.6120    9.0340 C.ar  115  HIS115      0.1154
     29  CE1       54.3610   61.7020    9.5830 C.ar  115  HIS115      0.1986
     30  NE2       55.3120   60.8310    9.3010 N.ar  115  HIS115     -0.2212
     31  N         54.7430   59.5470   12.7560 N.3   117  GLY117     -0.1210
     32  CA        55.1410   60.9160   13.0930 C.3   117  GLY117      0.1956
     33  C         56.5180   61.0350   13.7290 C.2   117  GLY117      0.2612
     34  O         57.4860   60.3990   13.2740 O.2   117  GLY117     -0.2717
     35  N         56.6080   61.8700   14.7670 N.am  118  ARG118     -0.1965
     36  CA        57.8530   62.1230   15.4590 C.3   118  ARG118      0.1729
     37  C         58.1570   60.9380   16.3790 C.2   118  ARG118      0.2616
     38  O         57.4250   60.6870   17.3290 O.2   118  ARG118     -0.2715
     39  CB        57.7620   63.4240   16.2600 C.3   118  ARG118      0.0348
     40  CG        59.0250   63.6810   17.0750 C.3   118  ARG118      0.0492
     41  CD        59.0720   65.0460   17.7540 C.3   118  ARG118      0.2205
     42  NE        58.2220   65.0670   18.9250 N.pl3 118  ARG118     -0.0865
     43  CZ        58.6440   64.9210   20.1820 C.cat 118  ARG118      0.5346
     44  NH1       59.9370   64.7500   20.4790 N.pl3 118  ARG118      0.1354
     45  NH2       57.7310   64.9550   21.1370 N.pl3 118  ARG118      0.1354
     46  N         59.2330   60.2020   16.1090 N.am  119  ILE119     -0.1977
     47  CA        59.4870   58.9770   16.8610 C.3   119  ILE119      0.1596
     48  C         59.7990   59.2780   18.3250 C.2   119  ILE119      0.2287
     49  O         59.4280   58.5090   19.2160 O.2   119  ILE119     -0.2864
     50  CB        60.5980   58.1110   16.2100 C.3   119  ILE119      0.0276
     51  CG1       60.3330   57.9440   14.7050 C.3   119  ILE119      0.0022
     52  CG2       60.7460   56.7310   16.9250 C.3   119  ILE119      0.0022
     53  CD1       58.9340   57.3830   14.3770 C.3   119  ILE119      0.0001
     54  N         62.7190   52.1340   12.7890 N.3   137  VAL137     -0.1245
     55  CA        61.5260   52.5030   12.0400 C.3   137  VAL137      0.1561
     56  C         61.8250   52.4670   10.5510 C.2   137  VAL137      0.2260
     57  O         62.8820   52.9110   10.1150 O.2   137  VAL137     -0.2867
     58  CB        61.0780   53.9290   12.4450 C.3   137  VAL137      0.0252
     59  CG1       59.8570   54.3930   11.6350 C.3   137  VAL137      0.0019
     60  CG2       60.8640   54.0450   13.9950 C.3   137  VAL137      0.0019
     61  N         59.9560   53.2600    6.5720 N.3   139  VAL139     -0.1245
     62  CA        58.8530   53.8170    5.8050 C.3   139  VAL139      0.1561
     63  C         58.5850   52.8680    4.6320 C.2   139  VAL139      0.2260
     64  O         59.4890   52.6220    3.8170 O.2   139  VAL139     -0.2867
     65  CB        59.2120   55.2360    5.2870 C.3   139  VAL139      0.0252
     66  CG1       57.9990   55.9030    4.6630 C.3   139  VAL139      0.0019
     67  CG2       59.8010   56.0870    6.4050 C.3   139  VAL139      0.0019
     68  N         63.1810   57.4690    4.7290 N.3   156  THR156     -0.1218
     69  CA        64.0530   58.2110    5.6130 C.3   156  THR156      0.1862
     70  C         64.2610   57.4990    6.9610 C.2   156  THR156      0.2287
     71  O         65.0350   57.9750    7.7790 O.2   156  THR156     -0.2866
     72  CB        63.5090   59.6370    5.7950 C.3   156  THR156      0.1770
     73  OG1       62.1390   59.5500    6.1690 O.3   156  THR156     -0.2211
     74  CG2       63.5890   60.4210    4.4660 C.3   156  THR156      0.0375
     75  N         63.8630   56.4940   10.3500 N.3   158  PRO158     -0.2116
     76  CA        64.4830   57.0860   11.5460 C.3   158  PRO158      0.1372
     77  C         64.9300   56.0690   12.6150 C.2   158  PRO158      0.2244
     78  O         64.4180   54.9510   12.6820 O.2   158  PRO158     -0.2868
     79  CB        63.3930   58.0320   12.0930 C.3   158  PRO158      0.0268
     80  CG        62.0770   57.4590   11.5940 C.3   158  PRO158      0.0207
     81  CD        62.4030   56.7190   10.2870 C.3   158  PRO158      0.0892
     82  N         67.5480   62.1470   24.5890 N.3   172  LEU172     -0.1231
     83  CA        66.7420   61.6490   23.4880 C.3   172  LEU172      0.1693
     84  C         67.4230   61.8470   22.1570 C.2   172  LEU172      0.2592
     85  O         67.5230   62.9680   21.6660 O.2   172  LEU172     -0.2718
     86  CB        65.4010   62.3760   23.4360 C.3   172  LEU172      0.0284
     87  CG        64.4340   62.0450   22.2730 C.3   172  LEU172      0.0019
     88  CD1       64.0120   60.5920   22.3340 C.3   172  LEU172      0.0001
     89  CD2       63.1740   62.9280   22.3400 C.3   172  LEU172      0.0001
     90  N         67.8680   60.7470   21.5670 N.am  173  LEU173     -0.1966
     91  CA        68.3380   60.7290   20.1980 C.3   173  LEU173      0.1728
     92  C         67.1570   60.3360   19.3240 C.2   173  LEU173      0.2616
     93  O         66.5190   59.3030   19.5430 O.2   173  LEU173     -0.2715
     94  CB        69.4990   59.7260   20.0470 C.3   173  LEU173      0.0311
     95  CG        70.1000   59.4850   18.6570 C.3   173  LEU173      0.0022
     96  CD1       71.4600   58.8020   18.7850 C.3   173  LEU173      0.0001
     97  CD2       69.1760   58.6490   17.7500 C.3   173  LEU173      0.0001
     98  N         66.8760   61.1490   18.3110 N.am  174  ASP174     -0.1957
     99  CA        65.7720   60.8930   17.4090 C.3   174  ASP174      0.1840
    100  C         66.0400   61.5310   16.0390 C.2   174  ASP174      0.2622
    101  O         65.9130   62.7340   15.8880 O.2   174  ASP174     -0.2715
    102  CB        64.4740   61.4420   18.0230 C.3   174  ASP174      0.1450
    103  CG        63.2850   61.3550   17.0670 C.2   174  ASP174      0.3671
    104  OD1       63.3180   60.5620   16.1040 O.co2 174  ASP174     -0.2456
    105  OD2       62.3010   62.0950   17.2650 O.co2 174  ASP174     -0.2456
    106  N         66.3810   60.7420   15.0240 N.am  175  TYR175     -0.1960
    107  CA        66.5850   61.3590   13.7170 C.3   175  TYR175      0.1771
    108  C         66.4530   60.4190   12.5430 C.2   175  TYR175      0.2619
    109  O         66.6220   59.2150   12.6940 O.2   175  TYR175     -0.2715
    110  CB        67.9420   62.0900   13.6610 C.3   175  TYR175      0.0574
    111  CG        69.1730   61.3050   14.1130 C.ar  175  TYR175     -0.0198
    112  CD1       69.5960   60.1380   13.4340 C.ar  175  TYR175     -0.0009
    113  CD2       69.9400   61.7490   15.1950 C.ar  175  TYR175     -0.0009
    114  CE1       70.7570   59.4390   13.8290 C.ar  175  TYR175      0.0417
    115  CE2       71.0940   61.0560   15.5950 C.ar  175  TYR175      0.0417
    116  CZ        71.4980   59.9060   14.8970 C.ar  175  TYR175      0.1957
    117  OH        72.6570   59.2540   15.2680 O.3   175  TYR175     -0.2866
    118  N         66.1840   60.9910   11.3700 N.am  176  ALA176     -0.1977
    119  CA        66.1910   60.2610   10.1110 C.3   176  ALA176      0.1597
    120  C         67.5910   59.7590    9.7620 C.2   176  ALA176      0.2287
    121  O         68.5950   60.3580   10.1540 O.2   176  ALA176     -0.2864
    122  CB        65.6750   61.1540    9.0090 C.3   176  ALA176      0.0319
    123  N         68.5720   59.7470    6.6660 N.3   178  SER178     -0.1217
    124  CA        68.9600   60.5420    5.5160 C.3   178  SER178      0.1889
    125  C         69.8760   61.6950    5.9580 C.2   178  SER178      0.2288
    126  O         69.9300   62.0350    7.1390 O.2   178  SER178     -0.2866
    127  CB        67.7110   61.0690    4.7930 C.3   178  SER178      0.2089
    128  OG        66.8750   61.7540    5.7120 O.3   178  SER178     -0.2183
    129  N         69.5950   64.8070    5.2860 N.3   180  ILE180     -0.1231
    130  CA        68.7540   65.9110    5.6670 C.3   180  ILE180      0.1692
    131  C         67.3160   65.3620    5.7010 C.2   180  ILE180      0.2591
    132  O         67.0200   64.3850    5.0060 O.2   180  ILE180     -0.2718
    133  CB        68.9470   67.0770    4.6750 C.3   180  ILE180      0.0266
    134  CG1       68.4350   68.3900    5.2480 C.3   180  ILE180      0.0019
    135  CG2       68.3640   66.8060    3.2560 C.3   180  ILE180      0.0020
    136  CD1       68.6050   69.5360    4.2210 C.3   180  ILE180      0.0001
    137  N         66.4380   65.9270    6.5400 N.am  181  ALA181     -0.1980
    138  CA        65.0150   65.4960    6.5130 C.3   181  ALA181      0.1597
    139  C         64.3400   65.9900    5.2370 C.2   181  ALA181      0.2287
    140  O         64.6960   67.0480    4.7040 O.2   181  ALA181     -0.2864
    141  CB        64.2360   65.9800    7.7470 C.3   181  ALA181      0.0319
    142  N         62.8560   69.4360    5.3820 N.3   184  LYS184     -0.1245
    143  CA        63.8150   70.5300    5.2040 C.3   184  LYS184      0.1561
    144  C         63.9500   70.9580    3.7480 C.2   184  LYS184      0.2260
    145  O         64.1200   72.1410    3.4600 O.2   184  LYS184     -0.2867
    146  CB        65.2070   70.1150    5.7000 C.3   184  LYS184      0.0271
    147  CG        65.3070   69.9120    7.1860 C.3   184  LYS184      0.0035
    148  CD        65.7710   71.1820    7.8770 C.3   184  LYS184      0.0206
    149  CE        65.4740   71.0790    9.3800 C.3   184  LYS184      0.1093
    150  NZ        66.2560   69.9930   10.0250 N.3   184  LYS184     -0.1314
    151  N         51.5340   56.9620    3.5610 N.3   260  ILE260     -0.1245
    152  CA        52.6910   56.8740    4.4170 C.3   260  ILE260      0.1561
    153  C         52.4680   55.8660    5.5210 C.2   260  ILE260      0.2260
    154  O         51.7290   56.1250    6.4690 O.2   260  ILE260     -0.2867
    155  CB        53.0760   58.2380    4.9990 C.3   260  ILE260      0.0252
    156  CG1       53.2580   59.2550    3.8690 C.3   260  ILE260      0.0019
    157  CG2       54.3990   58.1440    5.8370 C.3   260  ILE260      0.0019
    158  CD1       53.3350   60.7030    4.3770 C.3   260  ILE260      0.0001
    159  N         54.3170   53.1300    8.2580 N.3   262  ASN262     -0.1240
    160  CA        55.5190   52.8680    9.0170 C.3   262  ASN262      0.1653
    161  C         55.4780   51.4700    9.6580 C.2   262  ASN262      0.2266
    162  O         54.4130   50.9790   10.0230 O.2   262  ASN262     -0.2867
    163  CB        55.6680   53.9040   10.1450 C.3   262  ASN262      0.1155
    164  CG        56.1700   55.2670    9.6640 C.2   262  ASN262      0.2627
    165  OD1       55.5690   56.2920    9.9750 O.2   262  ASN262     -0.2716
    166  ND2       57.3030   55.2880    8.9580 N.am  262  ASN262     -0.0877
    167  N         75.8170   77.1960   22.3000 N.3   299  PRO299     -0.2116
    168  CA        76.2290   76.3130   23.3980 C.3   299  PRO299      0.1372
    169  C         76.0090   74.8190   23.0750 C.2   299  PRO299      0.2244
    170  O         75.2120   74.4760   22.2050 O.2   299  PRO299     -0.2868
    171  CB        75.3500   76.7720   24.5690 C.3   299  PRO299      0.0268
    172  CG        74.1590   77.3750   23.9400 C.3   299  PRO299      0.0207
    173  CD        74.6020   77.9640   22.6390 C.3   299  PRO299      0.0892
    174  N         74.5130   71.2780   23.4380 N.3   301  LEU301     -0.1231
    175  CA        73.2740   70.7170   23.9710 C.3   301  LEU301      0.1693
    176  C         73.4480   69.2320   24.2630 C.2   301  LEU301      0.2592
    177  O         74.2990   68.5700   23.6580 O.2   301  LEU301     -0.2718
    178  CB        72.1350   70.8930   22.9660 C.3   301  LEU301      0.0284
    179  CG        71.8110   72.3180   22.5200 C.3   301  LEU301      0.0019
    180  CD1       70.6200   72.2450   21.6000 C.3   301  LEU301      0.0001
    181  CD2       71.5480   73.2180   23.6960 C.3   301  LEU301      0.0001
    182  N         72.6390   68.7110   25.1840 N.am  302  LEU302     -0.1966
    183  CA        72.4780   67.2670   25.3240 C.3   302  LEU302      0.1713
    184  C         71.4830   66.7750   24.2750 C.2   302  LEU302      0.2458
    185  O         70.6500   67.5470   23.8090 O.2   302  LEU302     -0.2730
    186  CB        71.9950   66.9060   26.7370 C.3   302  LEU302      0.0310
    187  CG        72.8890   67.3730   27.8790 C.3   302  LEU302      0.0022
    188  CD1       72.2570   67.0560   29.2160 C.3   302  LEU302      0.0001
    189  CD2       74.3030   66.7680   27.7810 C.3   302  LEU302      0.0001
    190  N         71.5640   65.4910   23.8860 N.am  303  PRO303     -0.2716
    191  CA        70.5150   64.9440   23.0180 C.3   303  PRO303      0.1536
    192  C         69.1460   65.1590   23.6790 C.2   303  PRO303      0.2599
    193  O         68.9950   64.8730   24.8680 O.2   303  PRO303     -0.2715
    194  CB        70.8250   63.4380   22.9800 C.3   303  PRO303      0.0310
    195  CG        72.2460   63.3230   23.3270 C.3   303  PRO303      0.0237
    196  CD        72.5920   64.4940   24.2240 C.3   303  PRO303      0.0939
    197  N         68.1730   65.6780   22.9360 N.am  304  GLY304     -0.1955
    198  CA        66.8400   65.8990   23.4810 C.3   304  GLY304      0.1869
    199  C         66.6250   67.2950   24.0550 C.2   304  GLY304      0.2309
    200  O         65.4900   67.7100   24.2440 O.2   304  GLY304     -0.2863
    201  N         67.4100   70.2610   22.6470 N.3   306  TRP306     -0.1227
    202  CA        66.9010   71.1340   21.5970 C.3   306  TRP306      0.1737
    203  C         65.3540   71.1920   21.6130 C.2   306  TRP306      0.2595
    204  O         64.7630   72.2750   21.5620 O.2   306  TRP306     -0.2718
    205  CB        67.4260   70.6690   20.2280 C.3   306  TRP306      0.0564
    206  CG        67.0800   71.6320   19.1160 C.ar  306  TRP306      0.0003
    207  CD1       67.7960   72.7340   18.7380 C.ar  306  TRP306      0.0946
    208  CD2       65.9200   71.6060   18.2640 C.ar  306  TRP306      0.0152
    209  NE1       67.1650   73.3870   17.7090 N.ar  306  TRP306     -0.2442
    210  CE2       66.0130   72.7180   17.3960 C.ar  306  TRP306      0.0810
    211  CE3       64.8160   70.7500   18.1440 C.ar  306  TRP306      0.0012
    212  CZ2       65.0370   72.9970   16.4220 C.ar  306  TRP306      0.0191
    213  CZ3       63.8620   71.0200   17.1690 C.ar  306  TRP306      0.0001
    214  CH2       63.9720   72.1280   16.3290 C.ar  306  TRP306      0.0015
    215  N         64.7160   70.0240   21.6890 N.am  307  GLU307     -0.1979
    216  CA        63.2490   69.9090   21.7430 C.3   307  GLU307      0.1602
    217  C         62.6750   70.5410   23.0080 C.2   307  GLU307      0.2287
    218  O         61.6770   71.2740   22.9510 O.2   307  GLU307     -0.2864
    219  CB        62.8260   68.4350   21.6950 C.3   307  GLU307      0.0415
    220  CG        62.9230   67.7820   20.3310 C.3   307  GLU307      0.1163
    221  CD        64.3500   67.3000   19.9760 C.2   307  GLU307      0.3649
    222  OE1       65.2980   67.4620   20.7940 O.co2 307  GLU307     -0.2457
    223  OE2       64.5040   66.7420   18.8680 O.co2 307  GLU307     -0.2457
@<TRIPOS>BOND
     1   135   133    1
     2   145   144    2
     3   151   152    1
     4   144   143    1
     5    64    63    2
     6   156   158    1
     7   156   155    1
     8   136   134    1
     9   152   155    1
    10   152   153    1
    11    74    72    1
    12    63    62    1
    13    66    65    1
    14   133   134    1
    15   133   130    1
    16   140   139    2
    17    68    69    1
    18   127   124    1
    19   127   128    1
    20   155   157    1
    21   132   131    2
    22   143   142    1
    23   143   146    1
    24   139   138    1
    25   129   130    1
    26    65    62    1
    27    65    67    1
    28   124   125    1
    29   124   123    1
    30   153   154    2
    31    69    72    1
    32    69    70    1
    33   130   131    1
    34   146   147    1
    35   131   137   am
    36    72    73    1
    37    62    61    1
    38   125   126    2
    39   138   137    1
    40   138   141    1
    41    70    71    2
    42   147   148    1
    43   148   149    1
    44   159   160    1
    45    25    26    1
    46    25    22    1
    47   166   164   am
    48   122   119    1
    49   160   161    1
    50   160   163    1
    51    28    26   ar
    52    28    30   ar
    53    21    22    1
    54    26    27   ar
    55    30    29   ar
    56   149   150    1
    57    27    29   ar
    58    22    23    1
    59   161   162    2
    60   164   165    2
    61   164   163    1
    62   120   119    1
    63   120   121    2
    64   119   118    1
    65    57    56    2
    66    19    20   ar
    67    19    17   ar
    68    81    75    1
    69    81    80    1
    70    75    76    1
    71    20    18   ar
    72    56    55    1
    73    17    16   ar
    74    23    24    2
    75    11    12    1
    76   118   108   am
    77    18    16   ar
    78    76    79    1
    79    76    77    1
    80    80    79    1
    81    59    58    1
    82    16    15    1
    83    12    15    1
    84    12    13    1
    85    55    58    1
    86    55    54    1
    87    58    60    1
    88   108   109    2
    89   108   107    1
    90    77    78    2
    91    13    14    2
    92    31    32    1
    93    32    33    1
    94    34    33    2
    95   112   114   ar
    96   112   111   ar
    97     4     3    2
    98     3     2    1
    99   110   107    1
   100   110   111    1
   101   107   106    1
   102    33    35   am
   103   114   116   ar
   104   111   113   ar
   105    53    51    1
   106     2     5    1
   107     2     1    1
   108    51    50    1
   109     7     6   ar
   110     7     9   ar
   111    35    36    1
   112   116   117    1
   113   116   115   ar
   114     5     6    1
   115   106   100   am
   116   113   115   ar
   117    36    39    1
   118    36    37    1
   119     6     8   ar
   120     9    10   ar
   121   101   100    2
   122   100    99    1
   123   104   103   ar
   124    46    37   am
   125    46    47    1
   126    50    47    1
   127    50    52    1
   128    39    40    1
   129   214   212   ar
   130   214   213   ar
   131    37    38    2
   132   212   210   ar
   133    10     8   ar
   134    47    48    1
   135   103   105   ar
   136   103   102    1
   137    40    41    1
   138   213   211   ar
   139   210   209   ar
   140   210   208   ar
   141    99   102    1
   142    99    98    1
   143   209   207   ar
   144    97    95    1
   145    41    42    1
   146   211   208   ar
   147   208   206   ar
   148    98    92   am
   149    48    49    2
   150    95    96    1
   151    95    94    1
   152   207   206   ar
   153   223   221   ar
   154    42    43    2
   155   206   205    1
   156    92    93    2
   157    92    91    1
   158   221   220    1
   159   221   222   ar
   160    94    91    1
   161    43    44    1
   162    43    45    1
   163    91    90    1
   164   205   202    1
   165   220   219    1
   166   204   203    2
   167    90    84   am
   168   202   203    1
   169   202   201    1
   170   180   179    1
   171   203   215   am
   172    85    84    2
   173   215   216    1
   174   219   216    1
   175   216   217    1
   176    84    83    1
   177   170   169    2
   178    87    88    1
   179    87    89    1
   180    87    86    1
   181   167   173    1
   182   167   168    1
   183   179   178    1
   184   179   181    1
   185   173   172    1
   186   197   198    1
   187   197   192   am
   188   218   217    2
   189   178   175    1
   190   194   191    1
   191   194   195    1
   192   191   192    1
   193   191   190    1
   194   169   168    1
   195   195   196    1
   196   168   171    1
   197    86    83    1
   198   174   175    1
   199   198   199    1
   200    83    82    1
   201   177   176    2
   202   192   193    2
   203   185   184    2
   204   190   196    1
   205   190   184   am
   206   172   171    1
   207   175   176    1
   208   199   200    2
   209   176   182   am
   210   184   183    1
   211   182   183    1
   212   183   186    1
   213   186   187    1
   214   189   187    1
   215   187   188    1
