@<TRIPOS>MOLECULE
tmp/2g8zA01.pdb
 176 176 0 0 0
SMALL
GASTEIGER

@<TRIPOS>ATOM
      1  N         17.8160   34.1740   10.6670 N.3     8  THR8       -0.1203
      2  CA        17.3220   35.4870   11.0690 C.3     8  THR8        0.1994
      3  C         18.3740   36.3930   11.7150 C.2     8  THR8        0.2619
      4  O         19.1570   35.9660   12.5590 O.2     8  THR8       -0.2717
      5  CB        16.1120   35.3470   12.0080 C.3     8  THR8        0.1784
      6  OG1       16.5270   34.7610   13.2430 O.3     8  THR8       -0.2211
      7  CG2       15.0570   34.4460   11.3790 C.3     8  THR8        0.0376
      8  N         18.3730   37.6510   11.2850 N.am    9  SER9       -0.1937
      9  CA        19.2900   38.6880   11.7530 C.3     9  SER9        0.2055
     10  C         19.3650   38.8780   13.2450 C.2     9  SER9        0.2643
     11  O         20.4470   38.9500   13.8190 O.2     9  SER9       -0.2714
     12  CB        18.8880   40.0440   11.1830 C.3     9  SER9        0.2130
     13  OG        19.5090   40.2870    9.9480 O.3     9  SER9       -0.2179
     14  N         18.1970   39.0080   13.8580 N.am   10  TRP10      -0.1973
     15  CA        18.1160   39.2750   15.2720 C.3    10  TRP10       0.1640
     16  C         18.5960   38.1640   16.1900 C.2    10  TRP10       0.2290
     17  O         18.7100   38.3770   17.3940 O.2    10  TRP10      -0.2864
     18  CB        16.6860   39.7040   15.6160 C.3    10  TRP10       0.0576
     19  CG        15.6200   38.6620   15.3980 C.ar   10  TRP10       0.0006
     20  CD1       15.1310   37.7960   16.3260 C.ar   10  TRP10       0.0946
     21  CD2       14.8970   38.3960   14.1780 C.ar   10  TRP10       0.0152
     22  NE1       14.1460   37.0110   15.7720 N.ar   10  TRP10      -0.2442
     23  CE2       13.9830   37.3570   14.4580 C.ar   10  TRP10       0.0810
     24  CE3       14.9320   38.9370   12.8840 C.ar   10  TRP10       0.0012
     25  CZ2       13.1140   36.8430   13.4870 C.ar   10  TRP10       0.0191
     26  CZ3       14.0670   38.4240   11.9240 C.ar   10  TRP10       0.0001
     27  CH2       13.1710   37.3910   12.2310 C.ar   10  TRP10       0.0015
     28  N         21.7220   38.5100   18.6910 N.3    13  TYR13      -0.1227
     29  CA        21.5950   39.1660   19.9880 C.3    13  TYR13       0.1736
     30  C         21.1920   38.3040   21.1820 C.2    13  TYR13       0.2595
     31  O         21.2100   38.7780   22.3130 O.2    13  TYR13      -0.2718
     32  CB        20.6120   40.3370   19.8800 C.3    13  TYR13       0.0548
     33  CG        20.9380   41.3210   18.7790 C.ar   13  TYR13      -0.0200
     34  CD1       22.1470   42.0190   18.7650 C.ar   13  TYR13      -0.0009
     35  CD2       20.0370   41.5550   17.7450 C.ar   13  TYR13      -0.0009
     36  CE1       22.4440   42.9270   17.7400 C.ar   13  TYR13       0.0417
     37  CE2       20.3220   42.4570   16.7270 C.ar   13  TYR13       0.0417
     38  CZ        21.5210   43.1410   16.7260 C.ar   13  TYR13       0.1957
     39  OH        21.7770   44.0490   15.7140 O.3    13  TYR13      -0.2866
     40  N         20.8210   37.0530   20.9480 N.am   14  ARG14      -0.1980
     41  CA        20.4190   36.1850   22.0480 C.3    14  ARG14       0.1597
     42  C         21.6100   35.9430   22.9480 C.2    14  ARG14       0.2287
     43  O         22.7410   35.9430   22.4730 O.2    14  ARG14      -0.2864
     44  CB        19.8680   34.8840   21.4870 C.3    14  ARG14       0.0334
     45  CG        18.6130   35.1520   20.7080 C.3    14  ARG14       0.0492
     46  CD        18.0050   33.9350   20.0800 C.3    14  ARG14       0.2205
     47  NE        16.8020   34.3340   19.3590 N.pl3  14  ARG14      -0.0865
     48  CZ        16.4070   33.7990   18.2130 C.cat  14  ARG14       0.5346
     49  NH1       17.1220   32.8340   17.6580 N.pl3  14  ARG14       0.1354
     50  NH2       15.3110   34.2450   17.6180 N.pl3  14  ARG14       0.1354
     51  N         15.7700   39.9430    7.8140 N.3    37  PHE37      -0.1241
     52  CA        14.9990   40.4510    6.6720 C.3    37  PHE37       0.1605
     53  C         15.6480   41.7670    6.2040 C.2    37  PHE37       0.2264
     54  O         16.2880   42.4620    6.9940 O.2    37  PHE37      -0.2867
     55  CB        13.5480   40.7620    7.1010 C.3    37  PHE37       0.0534
     56  CG        12.6910   39.5410    7.3650 C.ar   37  PHE37      -0.0203
     57  CD1       12.2080   38.7650    6.3120 C.ar   37  PHE37      -0.0042
     58  CD2       12.3650   39.1700    8.6670 C.ar   37  PHE37      -0.0042
     59  CE1       11.4180   37.6370    6.5550 C.ar   37  PHE37      -0.0003
     60  CE2       11.5790   38.0480    8.9230 C.ar   37  PHE37      -0.0003
     61  CZ        11.1040   37.2800    7.8640 C.ar   37  PHE37      -0.0000
     62  N         19.0190   46.3060    7.3800 N.3    48  TRP48      -0.1227
     63  CA        18.1550   46.4610    8.5380 C.3    48  TRP48       0.1737
     64  C         18.9870   46.6610    9.8050 C.2    48  TRP48       0.2595
     65  O         18.8600   47.6730   10.4930 O.2    48  TRP48      -0.2718
     66  CB        17.2760   45.2160    8.6750 C.3    48  TRP48       0.0564
     67  CG        16.2130   45.3260    9.7120 C.ar   48  TRP48       0.0003
     68  CD1       16.3910   45.4360   11.0550 C.ar   48  TRP48       0.0946
     69  CD2       14.7990   45.3490    9.4900 C.ar   48  TRP48       0.0152
     70  NE1       15.1760   45.5300   11.6890 N.ar   48  TRP48      -0.2442
     71  CE2       14.1800   45.4760   10.7520 C.ar   48  TRP48       0.0810
     72  CE3       13.9910   45.2680    8.3470 C.ar   48  TRP48       0.0012
     73  CZ2       12.7910   45.5320   10.9070 C.ar   48  TRP48       0.0191
     74  CZ3       12.6060   45.3230    8.4980 C.ar   48  TRP48       0.0001
     75  CH2       12.0220   45.4510    9.7700 C.ar   48  TRP48       0.0015
     76  N         19.8280   45.6800   10.1110 N.am   49  GLU49      -0.1979
     77  CA        20.6860   45.7340   11.2840 C.3    49  GLU49       0.1602
     78  C         21.9440   46.5180   10.9410 C.2    49  GLU49       0.2287
     79  O         22.3780   46.5470    9.7890 O.2    49  GLU49      -0.2864
     80  CB        21.0860   44.3210   11.7250 C.3    49  GLU49       0.0415
     81  CG        19.9420   43.3950   12.1180 C.3    49  GLU49       0.1163
     82  CD        19.2280   43.8230   13.3910 C.2    49  GLU49       0.3649
     83  OE1       19.7930   44.6460   14.1460 O.co2  49  GLU49      -0.2457
     84  OE2       18.1040   43.3230   13.6430 O.co2  49  GLU49      -0.2457
     85  N         10.7980   42.3290    3.8100 N.3    76  GLY76      -0.1225
     86  CA         9.5110   42.2830    4.4670 C.3    76  GLY76       0.1811
     87  C          9.6290   41.7370    5.8680 C.2    76  GLY76       0.2280
     88  O         10.4190   42.2330    6.6740 O.2    76  GLY76      -0.2866
     89  N          7.6830   40.2240    9.5840 N.3    78  TRP78      -0.1227
     90  CA         6.6610   40.7010   10.5160 C.3    78  TRP78       0.1737
     91  C          6.7990   42.1010   10.9980 C.2    78  TRP78       0.2595
     92  O          5.8320   42.8520   11.0220 O.2    78  TRP78      -0.2718
     93  CB         6.6200   39.8430   11.7460 C.3    78  TRP78       0.0564
     94  CG         6.1400   38.5600   11.4240 C.ar   78  TRP78       0.0003
     95  CD1        4.8420   38.1770   11.3130 C.ar   78  TRP78       0.0946
     96  CD2        6.9320   37.4340   11.1050 C.ar   78  TRP78       0.0152
     97  NE1        4.7750   36.8580   10.9440 N.ar   78  TRP78      -0.2442
     98  CE2        6.0520   36.3770   10.8130 C.ar   78  TRP78       0.0810
     99  CE3        8.3060   37.2130   11.0350 C.ar   78  TRP78       0.0012
    100  CZ2        6.5050   35.1120   10.4590 C.ar   78  TRP78       0.0191
    101  CZ3        8.7570   35.9650   10.6850 C.ar   78  TRP78       0.0001
    102  CH2        7.8620   34.9250   10.4050 C.ar   78  TRP78       0.0015
    103  N          7.9960   42.4400   11.4390 N.am   79  ASN79      -0.1974
    104  CA         8.2120   43.7740   11.9350 C.3    79  ASN79       0.1688
    105  C          8.1930   44.7760   10.8050 C.2    79  ASN79       0.2292
    106  O          8.5690   45.9270   10.9730 O.2    79  ASN79      -0.2864
    107  CB         9.5070   43.8330   12.7340 C.3    79  ASN79       0.1181
    108  CG         9.3660   43.1620   14.0890 C.2    79  ASN79       0.2629
    109  OD1        9.5420   41.9520   14.2240 O.2    79  ASN79      -0.2716
    110  ND2        9.0070   43.9470   15.0970 N.am   79  ASN79      -0.0877
    111  N         10.5510   25.6620   15.6840 N.3   239  PHE239     -0.1241
    112  CA        10.1730   26.2570   16.9570 C.3   239  PHE239      0.1605
    113  C          8.8580   25.6220   17.3830 C.2   239  PHE239      0.2264
    114  O          8.2560   24.8550   16.6370 O.2   239  PHE239     -0.2867
    115  CB         9.9580   27.7660   16.8130 C.3   239  PHE239      0.0534
    116  CG         8.8930   28.1270   15.8160 C.ar  239  PHE239     -0.0203
    117  CD1        9.1930   28.2060   14.4580 C.ar  239  PHE239     -0.0042
    118  CD2        7.5860   28.3500   16.2260 C.ar  239  PHE239     -0.0042
    119  CE1        8.2070   28.4990   13.5200 C.ar  239  PHE239     -0.0003
    120  CE2        6.5870   28.6440   15.2990 C.ar  239  PHE239     -0.0003
    121  CZ         6.9010   28.7190   13.9400 C.ar  239  PHE239     -0.0000
    122  N         15.2790   32.7430   23.8560 N.3   266  THR266     -0.1203
    123  CA        14.5310   33.4680   22.8380 C.3   266  THR266      0.1994
    124  C         13.7530   34.6460   23.3970 C.2   266  THR266      0.2618
    125  O         13.4420   35.5860   22.6690 O.2   266  THR266     -0.2717
    126  CB        13.5960   32.5180   22.0490 C.3   266  THR266      0.1784
    127  OG1       12.8400   31.7100   22.9610 O.3   266  THR266     -0.2211
    128  CG2       14.4180   31.6150   21.1400 C.3   266  THR266      0.0376
    129  N         13.4440   34.5880   24.6900 N.am  267  LYS267     -0.1965
    130  CA        12.7480   35.6710   25.3840 C.3   267  LYS267      0.1728
    131  C         11.4960   36.2490   24.7360 C.2   267  LYS267      0.2616
    132  O         11.2710   37.4510   24.7860 O.2   267  LYS267     -0.2715
    133  CB        13.7410   36.8040   25.6580 C.3   267  LYS267      0.0311
    134  CG        14.4930   36.6290   26.9570 C.3   267  LYS267      0.0038
    135  CD        15.9050   37.1820   26.8970 C.3   267  LYS267      0.0206
    136  CE        16.6640   36.8150   28.1710 C.3   267  LYS267      0.1093
    137  NZ        18.0730   37.2990   28.1750 N.3   267  LYS267     -0.1314
    138  N         10.6730   35.3950   24.1480 N.am  268  GLU268     -0.1977
    139  CA         9.4480   35.8510   23.5080 C.3   268  GLU268      0.1602
    140  C          8.2900   34.9870   23.9810 C.2   268  GLU268      0.2287
    141  O          8.3320   33.7670   23.8550 O.2   268  GLU268     -0.2864
    142  CB         9.5890   35.7520   21.9980 C.3   268  GLU268      0.0415
    143  CG         8.6190   36.6110   21.2180 C.3   268  GLU268      0.1163
    144  CD         8.8310   36.4670   19.7270 C.2   268  GLU268      0.3649
    145  OE1       10.0120   36.4120   19.3120 O.co2 268  GLU268     -0.2457
    146  OE2        7.8290   36.4130   18.9740 O.co2 268  GLU268     -0.2457
    147  N          6.4940   31.3660   22.2070 N.3   271  ILE271     -0.1245
    148  CA         7.2940   30.5210   21.3530 C.3   271  ILE271      0.1561
    149  C          8.5840   30.0960   22.0320 C.2   271  ILE271      0.2260
    150  O          9.1150   30.7880   22.9020 O.2   271  ILE271     -0.2867
    151  CB         7.5730   31.2050   19.9620 C.3   271  ILE271      0.0252
    152  CG1        9.0530   31.1150   19.6090 C.3   271  ILE271      0.0019
    153  CG2        7.0800   32.6300   19.9610 C.3   271  ILE271      0.0019
    154  CD1        9.5280   32.2260   18.7300 C.3   271  ILE271      0.0001
    155  N         12.0020   26.9840    8.9540 N.3   330  TRP330     -0.1241
    156  CA        12.0630   28.2490    9.6730 C.3   330  TRP330      0.1605
    157  C         12.2720   27.8550   11.1260 C.2   330  TRP330      0.2264
    158  O         11.3660   27.2860   11.7250 O.2   330  TRP330     -0.2867
    159  CB        10.7530   29.0350    9.5580 C.3   330  TRP330      0.0550
    160  CG        10.7910   30.3180   10.3570 C.ar  330  TRP330      0.0003
    161  CD1       10.6030   30.4590   11.7070 C.ar  330  TRP330      0.0946
    162  CD2       11.1300   31.6170    9.8650 C.ar  330  TRP330      0.0152
    163  NE1       10.8110   31.7660   12.0830 N.ar  330  TRP330     -0.2442
    164  CE2       11.1390   32.4980   10.9730 C.ar  330  TRP330      0.0810
    165  CE3       11.4340   32.1220    8.5970 C.ar  330  TRP330      0.0012
    166  CZ2       11.4390   33.8600   10.8460 C.ar  330  TRP330      0.0191
    167  CZ3       11.7340   33.4780    8.4700 C.ar  330  TRP330      0.0001
    168  CH2       11.7350   34.3290    9.5890 C.ar  330  TRP330      0.0015
    169  N         16.8780   28.4440   15.2920 N.3   334  LEU334     -0.1245
    170  CA        15.9480   27.9320   16.2930 C.3   334  LEU334      0.1561
    171  C         16.1350   26.4170   16.4690 C.2   334  LEU334      0.2260
    172  O         15.6330   25.8200   17.4160 O.2   334  LEU334     -0.2867
    173  CB        14.5060   28.2770   15.8860 C.3   334  LEU334      0.0270
    174  CG        14.1800   29.7770   15.8300 C.3   334  LEU334      0.0019
    175  CD1       12.7930   30.0060   15.2500 C.3   334  LEU334      0.0001
    176  CD2       14.2670   30.3610   17.2290 C.3   334  LEU334      0.0001
@<TRIPOS>BOND
     1    85    86    1
     2    86    87    1
     3    87    88    2
     4    53    52    1
     5    53    54    2
     6    57    59   ar
     7    57    56   ar
     8    59    61   ar
     9    52    55    1
    10    52    51    1
    11    55    56    1
    12    56    58   ar
    13    62    63    1
    14    61    60   ar
    15    72    74   ar
    16    72    69   ar
    17   167   165   ar
    18   167   168   ar
    19    74    75   ar
    20    63    66    1
    21    63    64    1
    22   165   162   ar
    23    58    60   ar
    24    66    67    1
    25   155   156    1
    26    69    67   ar
    27    69    71   ar
    28   159   156    1
    29   159   160    1
    30    89    90    1
    31   168   166   ar
    32   156   157    1
    33    67    68   ar
    34    75    73   ar
    35    79    78    2
    36    64    76   am
    37    64    65    2
    38   162   160   ar
    39   162   164   ar
    40    13    12    1
    41    76    77    1
    42   160   161   ar
    43   102   100   ar
    44   102   101   ar
    45   100    98   ar
    46    90    91    1
    47    90    93    1
    48     1     2    1
    49   101    99   ar
    50    71    73   ar
    51    71    70   ar
    52   105   106    2
    53   105   104    1
    54    98    97   ar
    55    98    96   ar
    56   166   164   ar
    57    78    77    1
    58    97    95   ar
    59   164   163   ar
    60    91    92    2
    61    91   103   am
    62    99    96   ar
    63    68    70   ar
    64     2     3    1
    65     2     5    1
    66    96    94   ar
    67   157   158    2
    68    12     9    1
    69    77    80    1
    70     8     3   am
    71     8     9    1
    72    95    94   ar
    73     7     5    1
    74    94    93    1
    75   103   104    1
    76   161   163   ar
    77     3     4    2
    78    80    81    1
    79     9    10    1
    80    26    27   ar
    81    26    24   ar
    82   104   107    1
    83     5     6    1
    84    81    82    1
    85    27    25   ar
    86   107   108    1
    87    24    21   ar
    88    10    11    2
    89    10    14   am
    90    82    84   ar
    91    82    83   ar
    92    25    23   ar
    93   119   121   ar
    94   119   117   ar
    95    14    15    1
    96   121   120   ar
    97   108   109    2
    98   108   110   am
    99    21    23   ar
   100    21    19   ar
   101    23    22   ar
   102   117   116   ar
   103   175   174    1
   104    15    18    1
   105    15    16    1
   106   169   170    1
   107   120   118   ar
   108    19    18    1
   109    19    20   ar
   110   111   112    1
   111    39    38    1
   112    22    20   ar
   113   116   118   ar
   114   116   115    1
   115   174   173    1
   116   174   176    1
   117   173   170    1
   118    16    17    2
   119   170   171    1
   120   171   172    2
   121   114   113    2
   122    38    37   ar
   123    38    36   ar
   124    37    35   ar
   125   115   112    1
   126   112   113    1
   127    50    48    1
   128    49    48    1
   129    36    34   ar
   130    35    33   ar
   131    48    47    2
   132    28    29    1
   133   154   152    1
   134    34    33   ar
   135    33    32    1
   136   146   144   ar
   137   145   144   ar
   138    47    46    1
   139   152   151    1
   140   144   143    1
   141    32    29    1
   142   153   151    1
   143   151   148    1
   144    29    30    1
   145    46    45    1
   146    45    44    1
   147    40    30   am
   148    40    41    1
   149   128   126    1
   150    30    31    2
   151   143   142    1
   152   148   149    1
   153   148   147    1
   154    44    41    1
   155   142   139    1
   156   149   150    2
   157    41    42    1
   158   126   123    1
   159   126   127    1
   160    43    42    2
   161   125   124    2
   162   123   124    1
   163   123   122    1
   164   124   129   am
   165   139   140    1
   166   139   138    1
   167   141   140    2
   168   138   131   am
   169   129   130    1
   170   131   132    2
   171   131   130    1
   172   130   133    1
   173   133   134    1
   174   135   134    1
   175   135   136    1
   176   136   137    1
