@<TRIPOS>MOLECULE
tmp/2g9aA00.pdb
 184 177 0 0 0
SMALL
GASTEIGER

@<TRIPOS>ATOM
      1  N         -4.3320   -9.0270   29.2920 N.3    24  ALA24      -0.1231
      2  CA        -3.5410   -9.8220   28.3570 C.3    24  ALA24       0.1694
      3  C         -4.3960  -10.4400   27.2700 C.2    24  ALA24       0.2592
      4  O         -5.4560  -10.9960   27.5490 O.2    24  ALA24      -0.2718
      5  CB        -2.8160  -10.9150   29.1060 C.3    24  ALA24       0.0304
      6  N         -3.9440  -10.3390   26.0270 N.am   25  VAL25      -0.1966
      7  CA        -4.6910  -10.9410   24.9350 C.3    25  VAL25       0.1727
      8  C         -4.2660  -12.4090   24.8790 C.2    25  VAL25       0.2616
      9  O         -3.0850  -12.7320   25.0450 O.2    25  VAL25      -0.2715
     10  CB        -4.3930  -10.2510   23.5900 C.3    25  VAL25       0.0290
     11  CG1       -5.0790  -10.9980   22.4600 C.3    25  VAL25       0.0023
     12  CG2       -4.8890   -8.8180   23.6300 C.3    25  VAL25       0.0023
     13  N         -5.2320  -13.2990   24.6660 N.am   26  SER26      -0.1950
     14  CA        -4.9490  -14.7290   24.6170 C.3    26  SER26       0.1924
     15  C         -4.8040  -15.2710   23.2040 C.2    26  SER26       0.2314
     16  O         -3.8800  -16.0380   22.9140 O.2    26  SER26      -0.2863
     17  CB        -6.0470  -15.4880   25.3500 C.3    26  SER26       0.2116
     18  OG        -7.3040  -14.8880   25.1000 O.3    26  SER26      -0.2180
     19  N         -7.9250  -11.8860   28.8260 N.3    42  ALA42      -0.1245
     20  CA        -8.0720  -12.2030   30.2350 C.3    42  ALA42       0.1562
     21  C         -9.1380  -11.2830   30.8310 C.2    42  ALA42       0.2260
     22  O         -9.7290  -11.5740   31.8760 O.2    42  ALA42      -0.2867
     23  CB        -6.7270  -12.0110   30.9400 C.3    42  ALA42       0.0290
     24  N        -11.8150  -15.4940   32.6960 N.3    66  GLY66      -0.1210
     25  CA       -10.9970  -15.2650   31.5190 C.3    66  GLY66       0.1956
     26  C        -11.2620  -16.1930   30.3470 C.2    66  GLY66       0.2612
     27  O        -11.6710  -17.3340   30.5280 O.2    66  GLY66      -0.2717
     28  N        -11.0280  -15.6950   29.1370 N.am   67  ILE67      -0.1965
     29  CA       -11.2170  -16.4880   27.9280 C.3    67  ILE67       0.1727
     30  C         -9.8360  -16.8120   27.3640 C.2    67  ILE67       0.2617
     31  O         -9.0950  -15.9080   27.0050 O.2    67  ILE67      -0.2715
     32  CB       -11.9960  -15.7050   26.8590 C.3    67  ILE67       0.0290
     33  CG1      -13.2970  -15.1570   27.4500 C.3    67  ILE67       0.0022
     34  CG2      -12.2850  -16.6120   25.6740 C.3    67  ILE67       0.0023
     35  CD1      -14.0320  -14.1680   26.5370 C.3    67  ILE67       0.0001
     36  N         -9.4990  -18.0940   27.2740 N.am   68  SER68      -0.1936
     37  CA        -8.1890  -18.5120   26.7670 C.3    68  SER68       0.2055
     38  C         -8.1660  -18.8090   25.2690 C.2    68  SER68       0.2643
     39  O         -7.0960  -19.0040   24.6900 O.2    68  SER68      -0.2714
     40  CB        -7.7050  -19.7680   27.5060 C.3    68  SER68       0.2130
     41  OG        -7.9030  -19.6650   28.9070 O.3    68  SER68      -0.2179
     42  N         -9.3340  -18.8430   24.6380 N.am   69  ASP69      -0.1971
     43  CA        -9.3910  -19.1700   23.2200 C.3    69  ASP69       0.1709
     44  C        -10.7100  -18.7120   22.5910 C.2    69  ASP69       0.2293
     45  O        -11.7340  -18.5880   23.2710 O.2    69  ASP69      -0.2864
     46  CB        -9.2430  -20.6930   23.0640 C.3    69  ASP69       0.1436
     47  CG        -8.6900  -21.1100   21.7070 C.2    69  ASP69       0.3671
     48  OD1       -8.6510  -22.3340   21.4400 O.co2  69  ASP69      -0.2456
     49  OD2       -8.2900  -20.2220   20.9200 O.co2  69  ASP69      -0.2456
     50  N        -12.3550  -19.5570   31.6670 N.3    84  ASP84      -0.1239
     51  CA       -11.9480  -20.1030   32.9530 C.3    84  ASP84       0.1674
     52  C        -13.1790  -20.3070   33.8200 C.2    84  ASP84       0.2266
     53  O        -13.0960  -20.9180   34.8840 O.2    84  ASP84      -0.2867
     54  CB       -10.9550  -19.1690   33.6590 C.3    84  ASP84       0.1410
     55  CG        -9.5100  -19.4320   33.2530 C.2    84  ASP84       0.3668
     56  OD1       -8.6000  -18.7580   33.7770 O.co2  84  ASP84      -0.2456
     57  OD2       -9.2780  -20.3180   32.4080 O.co2  84  ASP84      -0.2456
     58  N        -10.9060  -25.2070   33.9360 N.3   108  TYR108     -0.1241
     59  CA       -10.8000  -24.2250   32.8660 C.3   108  TYR108      0.1605
     60  C        -10.8980  -24.8900   31.4970 C.2   108  TYR108      0.2264
     61  O        -10.5080  -26.0420   31.3290 O.2   108  TYR108     -0.2867
     62  CB        -9.4690  -23.4760   32.9590 C.3   108  TYR108      0.0534
     63  CG        -9.1110  -22.9880   34.3450 C.ar  108  TYR108     -0.0201
     64  CD1       -9.9660  -22.1390   35.0580 C.ar  108  TYR108     -0.0009
     65  CD2       -7.9140  -23.3780   34.9490 C.ar  108  TYR108     -0.0009
     66  CE1       -9.6320  -21.6930   36.3390 C.ar  108  TYR108      0.0417
     67  CE2       -7.5720  -22.9400   36.2240 C.ar  108  TYR108      0.0417
     68  CZ        -8.4330  -22.1010   36.9150 C.ar  108  TYR108      0.1957
     69  OH        -8.0900  -21.6810   38.1830 O.3   108  TYR108     -0.2866
     70  N         -9.4080  -24.5800   28.0420 N.3   110  PHE110     -0.1227
     71  CA        -8.2480  -23.9320   27.4520 C.3   110  PHE110      0.1736
     72  C         -8.2630  -23.6890   25.9550 C.2   110  PHE110      0.2595
     73  O         -7.6810  -22.7050   25.4780 O.2   110  PHE110     -0.2718
     74  CB        -7.0070  -24.7420   27.8090 C.3   110  PHE110      0.0547
     75  CG        -5.7230  -24.0390   27.5380 C.ar  110  PHE110     -0.0202
     76  CD1       -5.1900  -23.1590   28.4710 C.ar  110  PHE110     -0.0042
     77  CD2       -5.0190  -24.2890   26.3650 C.ar  110  PHE110     -0.0042
     78  CE1       -3.9610  -22.5400   28.2410 C.ar  110  PHE110     -0.0003
     79  CE2       -3.7890  -23.6780   26.1190 C.ar  110  PHE110     -0.0003
     80  CZ        -3.2560  -22.8040   27.0550 C.ar  110  PHE110     -0.0000
     81  N         -8.9060  -24.5830   25.2150 N.am  111  CYS111     -0.1970
     82  CA        -8.9540  -24.4610   23.7580 C.3   111  CYS111      0.1712
     83  C        -10.2890  -24.9440   23.1890 C.2   111  CYS111      0.2296
     84  O        -11.0030  -25.7180   23.8410 O.2   111  CYS111     -0.2864
     85  CB        -7.7920  -25.2520   23.1430 C.3   111  CYS111      0.0983
     86  SG        -7.6190  -26.9280   23.8190 S.3   111  CYS111     -0.0798
     87  N         -3.9660  -28.7180   25.8910 N.3   152  SER152     -0.1217
     88  CA        -3.6330  -27.4020   25.3360 C.3   152  SER152      0.1889
     89  C         -4.1850  -27.0410   23.9550 C.2   152  SER152      0.2288
     90  O         -4.1950  -25.8720   23.5930 O.2   152  SER152     -0.2866
     91  CB        -2.1090  -27.2270   25.3140 C.3   152  SER152      0.2089
     92  OG        -1.4730  -28.3200   24.6740 O.3   152  SER152     -0.2183
     93  N          0.0010  -31.2140   28.2030 N.3   168  TYR168     -0.1241
     94  CA         1.2060  -31.0450   29.0030 C.3   168  TYR168      0.1605
     95  C          1.7190  -32.4360   29.3400 C.2   168  TYR168      0.2264
     96  O          2.8450  -32.6000   29.8210 O.2   168  TYR168     -0.2867
     97  CB         0.8690  -30.2980   30.2890 C.3   168  TYR168      0.0534
     98  CG         0.8780  -28.8010   30.1380 C.ar  168  TYR168     -0.0201
     99  CD1        1.9260  -28.0390   30.6520 C.ar  168  TYR168     -0.0009
    100  CD2       -0.1470  -28.1440   29.4650 C.ar  168  TYR168     -0.0009
    101  CE1        1.9540  -26.6650   30.5040 C.ar  168  TYR168      0.0417
    102  CE2       -0.1320  -26.7680   29.3070 C.ar  168  TYR168      0.0417
    103  CZ         0.9230  -26.0310   29.8340 C.ar  168  TYR168      0.1957
    104  OH         0.9410  -24.6560   29.7130 O.3   168  TYR168     -0.2866
    105  N          2.3940  -27.7840   24.0020 N.3   195  SER195     -0.1202
    106  CA         1.6250  -26.5530   24.1740 C.3   195  SER195      0.2020
    107  C          0.6620  -26.2470   23.0170 C.2   195  SER195      0.2618
    108  O         -0.3730  -25.6040   23.2140 O.2   195  SER195     -0.2717
    109  CB         2.5990  -25.3980   24.3760 C.3   195  SER195      0.2103
    110  OG         3.6980  -25.5260   23.4900 O.3   195  SER195     -0.2182
    111  N          1.0040  -26.7100   21.8180 N.am  196  PHE196     -0.1975
    112  CA         0.1570  -26.4730   20.6530 C.3   196  PHE196      0.1639
    113  C          0.2170  -27.5740   19.5950 C.2   196  PHE196      0.2290
    114  O          1.1950  -28.3140   19.4960 O.2   196  PHE196     -0.2864
    115  CB         0.5060  -25.1420   19.9840 C.3   196  PHE196      0.0560
    116  CG        -0.4510  -24.7580   18.9090 C.ar  196  PHE196     -0.0200
    117  CD1       -1.7580  -24.3840   19.2310 C.ar  196  PHE196     -0.0042
    118  CD2       -0.0850  -24.8430   17.5710 C.ar  196  PHE196     -0.0042
    119  CE1       -2.6970  -24.1020   18.2350 C.ar  196  PHE196     -0.0003
    120  CE2       -1.0130  -24.5640   16.5650 C.ar  196  PHE196     -0.0003
    121  CZ        -2.3260  -24.1940   16.9040 C.ar  196  PHE196     -0.0000
    122  N          7.1850  -21.3830   28.6050 N.3   236  LYS236     -0.1231
    123  CA         6.1290  -21.1120   29.5740 C.3   236  LYS236      0.1693
    124  C          4.6770  -21.0110   29.1070 C.2   236  LYS236      0.2592
    125  O          3.7690  -21.4460   29.8140 O.2   236  LYS236     -0.2718
    126  CB         6.4960  -19.8340   30.3350 C.3   236  LYS236      0.0285
    127  CG         7.8510  -19.9080   31.0050 C.3   236  LYS236      0.0035
    128  CD         8.4120  -18.5370   31.3420 C.3   236  LYS236      0.0206
    129  CE         9.7980  -18.6710   31.9750 C.3   236  LYS236      0.1093
    130  NZ        10.4740  -17.3530   32.2030 N.3   236  LYS236     -0.1314
    131  N          4.4390  -20.4330   27.9370 N.am  237  TYR237     -0.1962
    132  CA         3.0640  -20.2860   27.4760 C.3   237  TYR237      0.1771
    133  C          2.7090  -21.1370   26.2860 C.2   237  TYR237      0.2619
    134  O          3.5700  -21.7480   25.6510 O.2   237  TYR237     -0.2715
    135  CB         2.7600  -18.8240   27.1360 C.3   237  TYR237      0.0574
    136  CG         3.1030  -17.8690   28.2540 C.ar  237  TYR237     -0.0198
    137  CD1        4.3970  -17.3390   28.3840 C.ar  237  TYR237     -0.0009
    138  CD2        2.1480  -17.5300   29.2140 C.ar  237  TYR237     -0.0009
    139  CE1        4.7190  -16.5000   29.4420 C.ar  237  TYR237      0.0417
    140  CE2        2.4650  -16.6990   30.2670 C.ar  237  TYR237      0.0417
    141  CZ         3.7440  -16.1910   30.3770 C.ar  237  TYR237      0.1957
    142  OH         4.0300  -15.3790   31.4410 O.3   237  TYR237     -0.2866
    143  N          1.4140  -21.1640   25.9970 N.am  238  CYS238     -0.1968
    144  CA         0.8910  -21.9100   24.8720 C.3   238  CYS238      0.1712
    145  C          0.6840  -20.9450   23.7190 C.2   238  CYS238      0.2296
    146  O         -0.3780  -20.3340   23.5790 O.2   238  CYS238     -0.2864
    147  CB        -0.4140  -22.5830   25.2560 C.3   238  CYS238      0.0983
    148  SG        -0.1880  -23.9340   26.4390 S.3   238  CYS238     -0.0798
    149  N          0.1740  -20.1200   19.8740 N.3   240  PHE240     -0.1241
    150  CA        -0.3850  -20.7680   18.6790 C.3   240  PHE240      0.1605
    151  C          0.6980  -20.6600   17.6080 C.2   240  PHE240      0.2264
    152  O          1.5590  -19.7930   17.6840 O.2   240  PHE240     -0.2867
    153  CB        -1.6190  -20.0410   18.1250 C.3   240  PHE240      0.0534
    154  CG        -2.7800  -19.9850   19.0620 C.ar  240  PHE240     -0.0203
    155  CD1       -2.7610  -19.1570   20.1700 C.ar  240  PHE240     -0.0042
    156  CD2       -3.9390  -20.6940   18.7820 C.ar  240  PHE240     -0.0042
    157  CE1       -3.8760  -19.0650   21.0110 C.ar  240  PHE240     -0.0003
    158  CE2       -5.0530  -20.6040   19.6200 C.ar  240  PHE240     -0.0003
    159  CZ        -5.0220  -19.7740   20.7220 C.ar  240  PHE240     -0.0000
    160  N          1.7770  -14.1640   22.5030 N.3   282  ILE282     -0.1245
    161  CA         1.0710  -15.4190   22.7250 C.3   282  ILE282      0.1561
    162  C          0.2600  -15.9600   21.5530 C.2   282  ILE282      0.2260
    163  O          0.0380  -17.1630   21.4510 O.2   282  ILE282     -0.2867
    164  CB         0.1430  -15.3270   23.9660 C.3   282  ILE282      0.0252
    165  CG1       -0.0820  -16.7300   24.5270 C.3   282  ILE282      0.0019
    166  CG2       -1.1990  -14.6850   23.5930 C.3   282  ILE282      0.0019
    167  CD1       -0.9320  -16.7670   25.7460 C.3   282  ILE282      0.0001
    168  N          0.9030  -10.2540   25.7900 N.3   298  LEU298     -0.1231
    169  CA         0.3990  -10.4440   27.1590 C.3   298  LEU298      0.1693
    170  C          0.1700   -9.1510   27.9760 C.2   298  LEU298      0.2591
    171  O          0.5490   -8.0720   27.5200 O.2   298  LEU298     -0.2718
    172  CB         1.3200  -11.4150   27.8930 C.3   298  LEU298      0.0284
    173  CG         1.3600  -12.7700   27.1720 C.3   298  LEU298      0.0019
    174  CD1        2.2980  -13.7340   27.8690 C.3   298  LEU298      0.0001
    175  CD2       -0.0400  -13.3490   27.1270 C.3   298  LEU298      0.0001
    176  N         -0.4300   -9.2640   29.1750 N.am  299  GLU299     -0.1979
    177  CA        -0.7730   -8.0800   30.0000 C.3   299  GLU299      0.1602
    178  C          0.2410   -6.9790   30.0330 C.2   299  GLU299      0.2287
    179  O         -0.1250   -5.8160   30.1230 O.2   299  GLU299     -0.2864
    180  CB        -1.1290   -8.3910   31.4780 C.3   299  GLU299      0.0415
    181  CG        -0.0810   -9.0460   32.3280 C.3   299  GLU299      0.1163
    182  CD        -0.2590  -10.5780   32.1670 C.2   299  GLU299      0.3649
    183  OE1       -0.5990  -10.9750   31.0460 O.co2 299  GLU299     -0.2457
    184  OE2       -0.1230  -11.3370   33.1650 O.co2 299  GLU299     -0.2457
@<TRIPOS>BOND
     1   120   121   ar
     2   120   118   ar
     3   121   119   ar
     4   118   116   ar
     5   151   152    2
     6   151   150    1
     7   153   150    1
     8   153   154    1
     9   119   117   ar
    10   150   149    1
    11   156   154   ar
    12   156   158   ar
    13   116   117   ar
    14   116   115    1
    15   154   155   ar
    16   114   113    2
    17   113   112    1
    18   158   159   ar
    19   115   112    1
    20   155   157   ar
    21   112   111    1
    22   159   157   ar
    23    49    47   ar
    24    48    47   ar
    25   163   162    2
    26   162   161    1
    27    47    46    1
    28   111   107   am
    29    11    10    1
    30   160   161    1
    31    44    43    1
    32    44    45    2
    33   161   164    1
    34    16    15    2
    35   107   108    2
    36   107   106    1
    37    46    43    1
    38    85    82    1
    39    85    86    1
    40    83    82    1
    41    83    84    2
    42    15    14    1
    43    43    42    1
    44   110   109    1
    45   146   145    2
    46    10    12    1
    47    10     7    1
    48    90    89    2
    49   166   164    1
    50   145   144    1
    51    82    81    1
    52    89    88    1
    53   164   165    1
    54   105   106    1
    55   106   109    1
    56   165   167    1
    57    14    13    1
    58    14    17    1
    59    42    38   am
    60    13     8   am
    61    92    91    1
    62    39    38    2
    63   144   147    1
    64   144   143    1
    65     8     7    1
    66     8     9    2
    67     7     6    1
    68    18    17    1
    69    81    72   am
    70   147   148    1
    71    38    37    1
    72    91    88    1
    73    88    87    1
    74    73    72    2
    75   134   133    2
    76    34    32    1
    77   168   169    1
    78    72    71    1
    79   143   133   am
    80     6     3   am
    81    79    77   ar
    82    79    80   ar
    83   133   132    1
    84    77    75   ar
    85    35    33    1
    86    37    36    1
    87    37    40    1
    88    32    33    1
    89    32    29    1
    90    31    30    2
    91    80    78   ar
    92   175   173    1
    93   135   132    1
    94   135   136    1
    95   169   172    1
    96   169   170    1
    97   173   174    1
    98   173   172    1
    99     3     4    2
   100     3     2    1
   101    36    30   am
   102    30    29    1
   103    71    74    1
   104    71    70    1
   105   132   131    1
   106    40    41    1
   107   171   170    2
   108    75    74    1
   109    75    76   ar
   110    29    28    1
   111   131   124   am
   112   170   176   am
   113    93    94    1
   114    78    76   ar
   115   136   137   ar
   116   136   138   ar
   117     2     5    1
   118     2     1    1
   119   137   139   ar
   120   122   123    1
   121    19    20    1
   122    94    95    1
   123    94    97    1
   124   124   123    1
   125   124   125    2
   126    28    26   am
   127   176   177    1
   128   138   140   ar
   129   102   100   ar
   130   102   103   ar
   131    95    96    2
   132   139   141   ar
   133   100    98   ar
   134   123   126    1
   135   104   103    1
   136   103   101   ar
   137   177   178    1
   138   177   180    1
   139   178   179    2
   140    98    97    1
   141    98    99   ar
   142    20    21    1
   143    20    23    1
   144   140   141   ar
   145   126   127    1
   146    26    27    2
   147    26    25    1
   148   141   142    1
   149   101    99   ar
   150    21    22    2
   151   127   128    1
   152   183   182   ar
   153    61    60    2
   154   128   129    1
   155   180   181    1
   156    60    59    1
   157    25    24    1
   158    50    51    1
   159   129   130    1
   160   182   181    1
   161   182   184   ar
   162    57    55   ar
   163    59    62    1
   164    59    58    1
   165    51    54    1
   166    51    52    1
   167    62    63    1
   168    55    54    1
   169    55    56   ar
   170    52    53    2
   171    63    65   ar
   172    63    64   ar
   173    65    67   ar
   174    64    66   ar
   175    67    68   ar
   176    66    68   ar
   177    68    69    1
