@<TRIPOS>MOLECULE
tmp/2g9kA00.pdb
 71 63 0 0 0
SMALL
GASTEIGER

@<TRIPOS>ATOM
      1  N         -1.0590   35.1780   29.2420 N.3     6  LYS6       -0.1245
      2  CA        -2.0290   36.2680   29.3570 C.3     6  LYS6        0.1561
      3  C         -2.6900   36.4100   28.0020 C.2     6  LYS6        0.2260
      4  O         -2.0030   36.4080   26.9680 O.2     6  LYS6       -0.2867
      5  CB        -1.3660   37.5730   29.7810 C.3     6  LYS6        0.0271
      6  CG        -2.3310   38.7670   29.7660 C.3     6  LYS6        0.0035
      7  CD        -1.9460   39.8280   30.8100 C.3     6  LYS6        0.0206
      8  CE        -2.9590   40.9800   30.8530 C.3     6  LYS6        0.1093
      9  NZ        -4.3060   40.5420   31.3340 N.3     6  LYS6       -0.1314
     10  N         -5.7480   38.4660   25.7340 N.3     8  LEU8       -0.1245
     11  CA        -6.6540   39.5880   25.6120 C.3     8  LEU8        0.1561
     12  C         -7.5240   39.4330   24.3830 C.2     8  LEU8        0.2260
     13  O         -7.1200   38.8180   23.3870 O.2     8  LEU8       -0.2867
     14  CB        -5.8540   40.8940   25.5000 C.3     8  LEU8        0.0270
     15  CG        -4.9810   41.2580   26.7070 C.3     8  LEU8        0.0019
     16  CD1       -4.1790   42.4480   26.3650 C.3     8  LEU8        0.0001
     17  CD2       -5.8370   41.5180   27.9520 C.3     8  LEU8        0.0001
     18  N         -5.5830   35.7710   32.7090 N.3    45  GLU45      -0.1245
     19  CA        -4.2920   35.2020   33.0490 C.3    45  GLU45       0.1567
     20  C         -4.3860   33.7750   33.4980 C.2    45  GLU45       0.2260
     21  O         -5.4150   33.3290   34.0330 O.2    45  GLU45      -0.2867
     22  CB        -3.6090   36.0400   34.1170 C.3    45  GLU45       0.0388
     23  CG        -3.3350   37.4480   33.6480 C.3    45  GLU45       0.1160
     24  CD        -2.7900   38.3200   34.7500 C.2    45  GLU45       0.3649
     25  OE1       -2.1570   37.7780   35.6700 O.co2  45  GLU45      -0.2457
     26  OE2       -2.9960   39.5490   34.6960 O.co2  45  GLU45      -0.2457
     27  N          6.5600   34.8830   30.1230 N.3    97  THR97      -0.1218
     28  CA         5.1850   35.2950   30.0080 C.3    97  THR97       0.1862
     29  C          4.8320   35.2240   28.5500 C.2    97  THR97       0.2287
     30  O          5.5160   35.8290   27.7280 O.2    97  THR97      -0.2866
     31  CB         4.9610   36.7250   30.4850 C.3    97  THR97       0.1770
     32  OG1        5.2770   36.8000   31.8740 O.3    97  THR97      -0.2211
     33  CG2        3.4850   37.1070   30.2800 C.3    97  THR97       0.0375
     34  N          2.1010   36.2040   25.9880 N.3    99  ALA99      -0.1231
     35  CA         0.9140   37.0530   25.8970 C.3    99  ALA99       0.1694
     36  C          0.3180   36.8240   24.5180 C.2    99  ALA99       0.2592
     37  O          1.0550   36.6630   23.5330 O.2    99  ALA99      -0.2718
     38  CB         1.2860   38.5260   26.0670 C.3    99  ALA99       0.0304
     39  N         -1.0000   36.7920   24.4320 N.am  100  ALA100     -0.1966
     40  CA        -1.6140   36.6660   23.1310 C.3   100  ALA100      0.1728
     41  C         -2.7630   37.6480   23.0080 C.2   100  ALA100      0.2616
     42  O         -3.5270   37.8540   23.9550 O.2   100  ALA100     -0.2715
     43  CB        -2.0970   35.2490   22.9020 C.3   100  ALA100      0.0334
     44  N         -2.8800   38.2400   21.8330 N.am  101  LEU101     -0.1977
     45  CA        -3.9450   39.1700   21.5410 C.3   101  LEU101      0.1596
     46  C         -4.7990   38.5450   20.4340 C.2   101  LEU101      0.2287
     47  O         -4.3050   38.2920   19.3460 O.2   101  LEU101     -0.2864
     48  CB        -3.3370   40.4880   21.0680 C.3   101  LEU101      0.0297
     49  CG        -4.2830   41.6240   20.6650 C.3   101  LEU101      0.0022
     50  CD1       -5.1760   42.0430   21.8330 C.3   101  LEU101      0.0001
     51  CD2       -3.4630   42.7920   20.1720 C.3   101  LEU101      0.0001
     52  N         -1.8710   37.8280   17.7600 N.3   108  SER108     -0.1217
     53  CA        -0.4800   38.1440   17.9330 C.3   108  SER108      0.1889
     54  C         -0.0300   37.4950   19.2090 C.2   108  SER108      0.2288
     55  O         -0.7960   37.3230   20.1580 O.2   108  SER108     -0.2866
     56  CB        -0.3060   39.6640   18.0200 C.3   108  SER108      0.2089
     57  OG         1.0580   40.0290   18.0110 O.3   108  SER108     -0.2183
     58  N          3.3820   37.4020   21.9400 N.3   110  THR110     -0.1218
     59  CA         4.6620   37.9430   22.3400 C.3   110  THR110      0.1862
     60  C          5.1350   37.2150   23.5860 C.2   110  THR110      0.2287
     61  O          4.3310   36.6870   24.3420 O.2   110  THR110     -0.2866
     62  CB         4.4180   39.4140   22.7120 C.3   110  THR110      0.1770
     63  OG1        3.8650   40.0930   21.5790 O.3   110  THR110     -0.2211
     64  CG2        5.6960   40.1190   23.1450 C.3   110  THR110      0.0375
     65  N          7.6520   37.6420   26.9880 N.3   112  VAL112     -0.1245
     66  CA         8.4860   38.4740   27.8380 C.3   112  VAL112      0.1561
     67  C          9.2620   37.4600   28.6640 C.2   112  VAL112      0.2260
     68  O          8.6760   36.5550   29.2670 O.2   112  VAL112     -0.2867
     69  CB         7.6530   39.3960   28.7280 C.3   112  VAL112      0.0252
     70  CG1        8.5550   40.2260   29.6590 C.3   112  VAL112      0.0019
     71  CG2        6.7630   40.2870   27.8740 C.3   112  VAL112      0.0019
@<TRIPOS>BOND
     1    52    53    1
     2    53    56    1
     3    53    54    1
     4    57    56    1
     5    54    55    2
     6    47    46    2
     7    51    49    1
     8    46    45    1
     9    49    48    1
    10    49    50    1
    11    48    45    1
    12    45    44    1
    13    63    62    1
    14    44    41   am
    15    58    59    1
    16    59    62    1
    17    59    60    1
    18    62    64    1
    19    43    40    1
    20    41    40    1
    21    41    42    2
    22    40    39    1
    23    13    12    2
    24    37    36    2
    25    60    61    2
    26    12    11    1
    27    39    36   am
    28    36    35    1
    29    14    11    1
    30    14    15    1
    31    11    10    1
    32    35    34    1
    33    35    38    1
    34    16    15    1
    35    15    17    1
    36     4     3    2
    37    65    66    1
    38    30    29    2
    39    66    67    1
    40    66    69    1
    41    71    69    1
    42     3     2    1
    43    29    28    1
    44    67    68    2
    45    69    70    1
    46     1     2    1
    47     2     5    1
    48     6     5    1
    49     6     7    1
    50    28    27    1
    51    28    31    1
    52    33    31    1
    53    31    32    1
    54     7     8    1
    55     8     9    1
    56    18    19    1
    57    19    20    1
    58    19    22    1
    59    20    21    2
    60    23    22    1
    61    23    24    1
    62    26    24   ar
    63    24    25   ar
