@<TRIPOS>MOLECULE
tmp/2g9qA00.pdb
 115 109 0 0 0
SMALL
GASTEIGER

@<TRIPOS>ATOM
      1  N         29.1710   24.1070   30.5570 N.3   124  GLY124     -0.1210
      2  CA        29.2780   22.8450   29.8160 C.3   124  GLY124      0.1956
      3  C         29.8970   21.7130   30.6160 C.2   124  GLY124      0.2611
      4  O         29.2950   20.6510   30.7840 O.2   124  GLY124     -0.2717
      5  N         31.0970   21.9590   31.1260 N.am  125  LEU125     -0.1979
      6  CA        31.8190   20.9990   31.9280 C.3   125  LEU125      0.1596
      7  C         30.9280   20.4690   33.0620 C.2   125  LEU125      0.2287
      8  O         30.8460   19.2610   33.2740 O.2   125  LEU125     -0.2864
      9  CB        33.1060   21.6510   32.4640 C.3   125  LEU125      0.0297
     10  CG        33.9240   20.9910   33.5900 C.3   125  LEU125      0.0022
     11  CD1       34.8320   19.9160   33.0550 C.3   125  LEU125      0.0001
     12  CD2       34.7570   22.0260   34.3230 C.3   125  LEU125      0.0001
     13  N         27.9120   18.4520   31.7150 N.3   128  LEU128     -0.1245
     14  CA        28.4730   17.2180   31.1970 C.3   128  LEU128      0.1561
     15  C         28.5950   16.1690   32.2950 C.2   128  LEU128      0.2260
     16  O         28.1620   15.0270   32.1210 O.2   128  LEU128     -0.2867
     17  CB        29.8340   17.4600   30.5330 C.3   128  LEU128      0.0270
     18  CG        30.4880   16.2260   29.8980 C.3   128  LEU128      0.0019
     19  CD1       29.8130   15.8460   28.5870 C.3   128  LEU128      0.0001
     20  CD2       31.9900   16.4500   29.6900 C.3   128  LEU128      0.0001
     21  N         38.9820   19.5790   28.1080 N.3   345  HIS345     -0.1226
     22  CA        37.6390   20.0540   27.7520 C.3   345  HIS345      0.1752
     23  C         37.5970   21.2670   26.8290 C.2   345  HIS345      0.2596
     24  O         36.5270   21.6240   26.3540 O.2   345  HIS345     -0.2718
     25  CB        36.7980   20.3030   29.0070 C.3   345  HIS345      0.0759
     26  CG        36.4540   19.0530   29.7400 C.ar  345  HIS345      0.0818
     27  ND1       35.3680   18.2750   29.4090 N.ar  345  HIS345     -0.2268
     28  CD2       37.0800   18.4140   30.7550 C.ar  345  HIS345      0.1154
     29  CE1       35.3280   17.2170   30.1990 C.ar  345  HIS345      0.1986
     30  NE2       36.3540   17.2780   31.0270 N.ar  345  HIS345     -0.2212
     31  N         38.7570   21.8800   26.5780 N.am  346  THR346     -0.1953
     32  CA        38.8630   23.1160   25.7850 C.3   346  THR346      0.1897
     33  C         40.3200   23.5130   25.5610 C.2   346  THR346      0.2313
     34  O         41.1500   23.3720   26.4540 O.2   346  THR346     -0.2863
     35  CB        38.1200   24.3300   26.4380 C.3   346  THR346      0.1794
     36  OG1       38.5100   25.5410   25.7770 O.3   346  THR346     -0.2208
     37  CG2       38.4370   24.4620   27.9400 C.3   346  THR346      0.0378
     38  N         37.0740   15.7850   23.4130 N.3   423  VAL423     -0.1245
     39  CA        35.6560   15.6080   23.6920 C.3   423  VAL423      0.1561
     40  C         34.7890   15.6810   22.4520 C.2   423  VAL423      0.2260
     41  O         33.5720   15.6470   22.5450 O.2   423  VAL423     -0.2867
     42  CB        35.1610   16.5690   24.8200 C.3   423  VAL423      0.0252
     43  CG1       35.8240   16.2090   26.1800 C.3   423  VAL423      0.0019
     44  CG2       35.4010   18.0490   24.4550 C.3   423  VAL423      0.0019
     45  N         31.3640   14.1010   23.3080 N.3   452  ASN452     -0.1240
     46  CA        30.4710   14.3680   24.4050 C.3   452  ASN452      0.1653
     47  C         29.0630   13.9280   24.0440 C.2   452  ASN452      0.2266
     48  O         28.7680   13.6840   22.8740 O.2   452  ASN452     -0.2867
     49  CB        30.4980   15.8600   24.7450 C.3   452  ASN452      0.1155
     50  CG        31.6870   16.2570   25.6350 C.2   452  ASN452      0.2627
     51  OD1       31.9700   17.4500   25.7890 O.2   452  ASN452     -0.2716
     52  ND2       32.3650   15.2730   26.2370 N.am  452  ASN452     -0.0877
     53  N         27.2870   30.4410   27.8860 N.3   537  ARG537     -0.1245
     54  CA        28.0560   31.4840   28.5660 C.3   537  ARG537      0.1563
     55  C         28.4600   32.5470   27.5520 C.2   537  ARG537      0.2260
     56  O         28.6650   32.2460   26.3710 O.2   537  ARG537     -0.2867
     57  CB        29.2690   30.9030   29.3160 C.3   537  ARG537      0.0307
     58  CG        30.5430   30.7320   28.4840 C.3   537  ARG537      0.0489
     59  CD        31.4270   29.5730   28.9800 C.3   537  ARG537      0.2205
     60  NE        32.8520   29.7900   28.6930 N.pl3 537  ARG537     -0.0865
     61  CZ        33.7810   28.8370   28.6640 C.cat 537  ARG537      0.5346
     62  NH1       35.0450   29.1440   28.4030 N.pl3 537  ARG537      0.1354
     63  NH2       33.4620   27.5740   28.8930 N.pl3 537  ARG537      0.1354
     64  N         34.6710   33.9610   21.9750 N.3   541  TYR541     -0.1227
     65  CA        34.8220   32.8240   21.0440 C.3   541  TYR541      0.1736
     66  C         33.4700   32.2700   20.6250 C.2   541  TYR541      0.2595
     67  O         33.3260   31.7640   19.5170 O.2   541  TYR541     -0.2718
     68  CB        35.7640   31.7220   21.5690 C.3   541  TYR541      0.0548
     69  CG        35.1500   30.5940   22.3860 C.ar  541  TYR541     -0.0200
     70  CD1       34.6010   29.4740   21.7660 C.ar  541  TYR541     -0.0009
     71  CD2       35.1830   30.6200   23.7790 C.ar  541  TYR541     -0.0009
     72  CE1       34.0810   28.4260   22.5090 C.ar  541  TYR541      0.0417
     73  CE2       34.6550   29.5850   24.5310 C.ar  541  TYR541      0.0417
     74  CZ        34.1060   28.4880   23.8900 C.ar  541  TYR541      0.1957
     75  OH        33.5830   27.4460   24.6320 O.3   541  TYR541     -0.2866
     76  N         32.4740   32.4060   21.4960 N.am  542  LYS542     -0.1980
     77  CA        31.1250   31.9360   21.1800 C.3   542  LYS542      0.1596
     78  C         30.4030   32.8590   20.1940 C.2   542  LYS542      0.2287
     79  O         29.4410   32.4480   19.5360 O.2   542  LYS542     -0.2864
     80  CB        30.3450   31.6890   22.4610 C.3   542  LYS542      0.0298
     81  CG        30.7720   30.3660   23.1070 C.3   542  LYS542      0.0038
     82  CD        30.3230   30.2890   24.5310 C.3   542  LYS542      0.0206
     83  CE        30.7260   29.0030   25.1710 C.3   542  LYS542      0.1093
     84  NZ        30.0650   27.7960   24.6240 N.3   542  LYS542     -0.1314
     85  N         35.4350   25.9010   19.8520 N.3   640  GLU640     -0.1231
     86  CA        34.5050   25.1310   20.6590 C.3   640  GLU640      0.1699
     87  C         34.9270   23.6630   20.6070 C.2   640  GLU640      0.2592
     88  O         34.8170   23.0190   19.5650 O.2   640  GLU640     -0.2718
     89  CB        33.0720   25.3350   20.1570 C.3   640  GLU640      0.0402
     90  CG        31.9570   24.8560   21.0950 C.3   640  GLU640      0.1161
     91  CD        31.9200   25.5950   22.4250 C.2   640  GLU640      0.3649
     92  OE1       32.6770   25.2210   23.3410 O.co2 640  GLU640     -0.2457
     93  OE2       31.1250   26.5340   22.5720 O.co2 640  GLU640     -0.2457
     94  N         35.4500   23.1520   21.7180 N.am  641  ALA641     -0.1966
     95  CA        35.9210   21.7650   21.7880 C.3   641  ALA641      0.1728
     96  C         34.8480   20.7260   21.4000 C.2   641  ALA641      0.2617
     97  O         35.1330   19.7530   20.6860 O.2   641  ALA641     -0.2715
     98  CB        36.4660   21.4590   23.1690 C.3   641  ALA641      0.0334
     99  N         33.6260   20.9360   21.8850 N.am  642  SER642     -0.1936
    100  CA        32.5100   20.1090   21.4890 C.3   642  SER642      0.2055
    101  C         31.2170   20.8930   21.4560 C.2   642  SER642      0.2644
    102  O         30.5490   20.9510   20.4150 O.2   642  SER642     -0.2714
    103  CB        32.3590   18.9190   22.4340 C.3   642  SER642      0.2130
    104  OG        31.1200   18.2810   22.2140 O.3   642  SER642     -0.2179
    105  N         30.8750   21.4880   22.5980 N.am  643  GLY643     -0.1939
    106  CA        29.5330   21.9740   22.8570 C.3   643  GLY643      0.2014
    107  C         28.6130   20.8180   23.2200 C.2   643  GLY643      0.2639
    108  O         28.8980   19.6610   22.9010 O.2   643  GLY643     -0.2714
    109  N         27.5080   21.1250   23.8930 N.am  644  THR644     -0.1950
    110  CA        26.4940   20.1250   24.2550 C.3   644  THR644      0.1897
    111  C         25.0920   20.7110   24.1330 C.2   644  THR644      0.2313
    112  O         24.1350   19.9970   23.8900 O.2   644  THR644     -0.2863
    113  CB        26.6600   19.6600   25.6760 C.3   644  THR644      0.1794
    114  OG1       26.6150   20.8050   26.5330 O.3   644  THR644     -0.2208
    115  CG2       27.9640   18.9140   25.8590 C.3   644  THR644      0.0378
@<TRIPOS>BOND
     1    67    66    2
     2    79    78    2
     3    88    87    2
     4    85    86    1
     5    89    86    1
     6    89    90    1
     7    78    77    1
     8   102   101    2
     9    87    86    1
    10    87    94   am
    11    66    65    1
    12    66    76   am
    13    97    96    2
    14    65    68    1
    15    65    64    1
    16    90    91    1
    17    77    76    1
    18    77    80    1
    19    96    95    1
    20    96    99   am
    21   101   100    1
    22   101   105   am
    23   100    99    1
    24   100   103    1
    25    68    69    1
    26    94    95    1
    27    70    69   ar
    28    70    72   ar
    29    95    98    1
    30   104   103    1
    31    69    71   ar
    32    91    93   ar
    33    91    92   ar
    34    40    41    2
    35    40    39    1
    36    80    81    1
    37    72    74   ar
    38   105   106    1
    39   106   107    1
    40    48    47    2
    41   108   107    2
    42    81    82    1
    43   107   109   am
    44    45    46    1
    45    38    39    1
    46    39    42    1
    47    71    73   ar
    48   112   111    2
    49    74    73   ar
    50    74    75    1
    51   109   110    1
    52    47    46    1
    53   111   110    1
    54   110   113    1
    55    46    49    1
    56    44    42    1
    57    82    83    1
    58    84    83    1
    59    49    50    1
    60    42    43    1
    61    33    32    1
    62    33    34    2
    63    50    51    2
    64    50    52   am
    65   113   115    1
    66   113   114    1
    67    36    35    1
    68    32    35    1
    69    32    31    1
    70    24    23    2
    71    56    55    2
    72    35    37    1
    73    31    23   am
    74    23    22    1
    75    55    54    1
    76    22    21    1
    77    22    25    1
    78    53    54    1
    79    62    61    1
    80    58    59    1
    81    58    57    1
    82    54    57    1
    83    19    18    1
    84    61    60    2
    85    61    63    1
    86    60    59    1
    87    25    26    1
    88    27    26   ar
    89    27    29   ar
    90    20    18    1
    91    26    28   ar
    92     2     1    1
    93     2     3    1
    94    18    17    1
    95    29    30   ar
    96    17    14    1
    97     3     4    2
    98     3     5   am
    99    28    30   ar
   100     5     6    1
   101    14    13    1
   102    14    15    1
   103     6     9    1
   104     6     7    1
   105    16    15    2
   106     9    10    1
   107    11    10    1
   108     7     8    2
   109    10    12    1
