@<TRIPOS>MOLECULE
tmp/2g9rA00.pdb
 170 162 0 0 0
SMALL
GASTEIGER

@<TRIPOS>ATOM
      1  N         28.9530   23.8780   30.3900 N.3   124  GLY124     -0.1210
      2  CA        29.1630   22.6400   29.6450 C.3   124  GLY124      0.1956
      3  C         29.8760   21.5370   30.4020 C.2   124  GLY124      0.2611
      4  O         29.4460   20.3780   30.3860 O.2   124  GLY124     -0.2717
      5  N         30.9720   21.8940   31.0660 N.am  125  LEU125     -0.1979
      6  CA        31.7790   20.9250   31.8130 C.3   125  LEU125      0.1596
      7  C         30.9930   20.3200   32.9880 C.2   125  LEU125      0.2287
      8  O         31.0050   19.1010   33.1860 O.2   125  LEU125     -0.2864
      9  CB        33.0880   21.5750   32.2890 C.3   125  LEU125      0.0297
     10  CG        34.1220   20.7530   33.0680 C.3   125  LEU125      0.0022
     11  CD1       34.3150   19.4390   32.3960 C.3   125  LEU125      0.0001
     12  CD2       35.4580   21.4620   33.1120 C.3   125  LEU125      0.0001
     13  N         28.0300   18.1500   31.6750 N.3   128  LEU128     -0.1245
     14  CA        28.5540   16.8910   31.1590 C.3   128  LEU128      0.1561
     15  C         28.7180   15.8640   32.2770 C.2   128  LEU128      0.2260
     16  O         28.3200   14.7050   32.1250 O.2   128  LEU128     -0.2867
     17  CB        29.8830   17.1000   30.4270 C.3   128  LEU128      0.0270
     18  CG        30.4140   15.8740   29.6740 C.3   128  LEU128      0.0019
     19  CD1       29.6460   15.6410   28.3750 C.3   128  LEU128      0.0001
     20  CD2       31.9210   15.9830   29.4120 C.3   128  LEU128      0.0001
     21  N         33.7580   31.4320   36.7890 N.3   265  ASN265     -0.1225
     22  CA        34.4780   31.9470   35.6250 C.3   265  ASN265      0.1785
     23  C         34.4510   31.0270   34.4190 C.2   265  ASN265      0.2597
     24  O         35.1700   31.2530   33.4430 O.2   265  ASN265     -0.2718
     25  CB        35.9260   32.2630   36.0010 C.3   265  ASN265      0.1169
     26  CG        36.0210   33.1430   37.2200 C.2   265  ASN265      0.2627
     27  OD1       35.2840   34.1260   37.3510 O.2   265  ASN265     -0.2716
     28  ND2       36.9210   32.7900   38.1340 N.am  265  ASN265     -0.0877
     29  N         33.6110   29.9970   34.4950 N.am  266  ASP266     -0.1960
     30  CA        33.5300   28.9550   33.4730 C.3   266  ASP266      0.1840
     31  C         34.8960   28.3120   33.2780 C.2   266  ASP266      0.2622
     32  O         35.2210   27.8320   32.1940 O.2   266  ASP266     -0.2715
     33  CB        32.9640   29.5030   32.1540 C.3   266  ASP266      0.1450
     34  CG        32.2330   28.4390   31.3390 C.2   266  ASP266      0.3671
     35  OD1       32.0550   27.3030   31.8290 O.co2 266  ASP266     -0.2456
     36  OD2       31.8300   28.7470   30.1980 O.co2 266  ASP266     -0.2456
     37  N         35.6850   28.3280   34.3520 N.am  267  ASN267     -0.1958
     38  CA        37.0280   27.7320   34.4000 C.3   267  ASN267      0.1819
     39  C         38.0930   28.3940   33.5060 C.2   267  ASN267      0.2621
     40  O         39.0790   27.7700   33.1090 O.2   267  ASN267     -0.2715
     41  CB        36.9540   26.2110   34.2250 C.3   267  ASN267      0.1195
     42  CG        36.0360   25.5670   35.2470 C.2   267  ASN267      0.2630
     43  OD1       36.3220   25.5770   36.4470 O.2   267  ASN267     -0.2716
     44  ND2       34.9170   25.0260   34.7820 N.am  267  ASN267     -0.0877
     45  N         37.8730   29.6710   33.2070 N.am  268  PHE268     -0.1974
     46  CA        38.9440   30.5710   32.7980 C.3   268  PHE268      0.1639
     47  C         39.9400   30.5190   33.9550 C.2   268  PHE268      0.2290
     48  O         39.5360   30.6090   35.1190 O.2   268  PHE268     -0.2864
     49  CB        38.3750   31.9850   32.6150 C.3   268  PHE268      0.0560
     50  CG        39.4130   33.0640   32.4510 C.ar  268  PHE268     -0.0200
     51  CD1       39.7760   33.5070   31.1840 C.ar  268  PHE268     -0.0042
     52  CD2       39.9980   33.6670   33.5640 C.ar  268  PHE268     -0.0042
     53  CE1       40.7270   34.5220   31.0240 C.ar  268  PHE268     -0.0003
     54  CE2       40.9550   34.6790   33.4190 C.ar  268  PHE268     -0.0003
     55  CZ        41.3200   35.1060   32.1450 C.ar  268  PHE268     -0.0000
     56  N         39.0350   17.3090   33.3510 N.3   313  ASP313     -0.1239
     57  CA        39.9300   18.4460   33.1490 C.3   313  ASP313      0.1674
     58  C         41.1230   18.3140   34.1000 C.2   313  ASP313      0.2266
     59  O         41.3020   17.2660   34.7310 O.2   313  ASP313     -0.2867
     60  CB        39.2040   19.7940   33.3290 C.3   313  ASP313      0.1410
     61  CG        39.7410   20.8730   32.4030 C.2   313  ASP313      0.3668
     62  OD1       38.9320   21.5460   31.7350 O.co2 313  ASP313     -0.2456
     63  OD2       40.9730   21.0480   32.3310 O.co2 313  ASP313     -0.2456
     64  N         39.3630   19.4000   27.9140 N.3   351  HIS351     -0.1226
     65  CA        38.0970   20.0320   27.5580 C.3   351  HIS351      0.1752
     66  C         38.1900   21.2330   26.6150 C.2   351  HIS351      0.2596
     67  O         37.1630   21.7330   26.1630 O.2   351  HIS351     -0.2718
     68  CB        37.3340   20.4260   28.8250 C.3   351  HIS351      0.0759
     69  CG        36.7060   19.2640   29.5210 C.ar  351  HIS351      0.0818
     70  ND1       35.4960   18.7340   29.1310 N.ar  351  HIS351     -0.2268
     71  CD2       37.1360   18.5070   30.5590 C.ar  351  HIS351      0.1154
     72  CE1       35.1990   17.7080   29.9090 C.ar  351  HIS351      0.1986
     73  NE2       36.1740   17.5540   30.7880 N.ar  351  HIS351     -0.2212
     74  N         39.4050   21.6940   26.3220 N.am  352  THR352     -0.1953
     75  CA        39.5900   22.8650   25.4580 C.3   352  THR352      0.1897
     76  C         41.0540   23.0740   25.0710 C.2   352  THR352      0.2313
     77  O         41.9580   22.6430   25.7910 O.2   352  THR352     -0.2863
     78  CB        39.0330   24.1590   26.1120 C.3   352  THR352      0.1794
     79  OG1       39.0060   25.2220   25.1510 O.3   352  THR352     -0.2208
     80  CG2       39.8660   24.5720   27.3140 C.3   352  THR352      0.0378
     81  N         41.9440   26.3060   24.1950 N.3   354  LEU354     -0.1245
     82  CA        42.1380   27.7280   24.4710 C.3   354  LEU354      0.1561
     83  C         43.0570   27.9460   25.6730 C.2   354  LEU354      0.2260
     84  O         42.8220   27.3820   26.7400 O.2   354  LEU354     -0.2867
     85  CB        40.7960   28.4450   24.6490 C.3   354  LEU354      0.0270
     86  CG        39.8960   28.4310   23.4050 C.3   354  LEU354      0.0019
     87  CD1       38.5200   28.9750   23.7230 C.3   354  LEU354      0.0001
     88  CD2       40.5190   29.1990   22.2460 C.3   354  LEU354      0.0001
     89  N         43.6870   30.4450   27.7490 N.3   356  GLU356     -0.1231
     90  CA        43.1720   31.0950   28.9620 C.3   356  GLU356      0.1699
     91  C         42.5470   30.1320   29.9760 C.2   356  GLU356      0.2592
     92  O         42.3710   30.4830   31.1410 O.2   356  GLU356     -0.2718
     93  CB        42.1770   32.2120   28.6210 C.3   356  GLU356      0.0402
     94  CG        41.0100   31.7920   27.7290 C.3   356  GLU356      0.1161
     95  CD        41.2010   32.2020   26.2770 C.2   356  GLU356      0.3649
     96  OE1       42.1890   31.7660   25.6390 O.co2 356  GLU356     -0.2457
     97  OE2       40.3480   32.9620   25.7730 O.co2 356  GLU356     -0.2457
     98  N         42.2110   28.9250   29.5290 N.am  357  ALA357     -0.1980
     99  CA        41.6430   27.9040   30.4130 C.3   357  ALA357      0.1597
    100  C         42.6990   26.9390   30.9750 C.2   357  ALA357      0.2287
    101  O         42.3890   26.1100   31.8350 O.2   357  ALA357     -0.2864
    102  CB        40.5500   27.1370   29.6910 C.3   357  ALA357      0.0319
    103  N         37.0770   15.6520   23.4340 N.3   429  VAL429     -0.1245
    104  CA        35.6310   15.5240   23.6530 C.3   429  VAL429      0.1561
    105  C         34.7960   15.5890   22.3730 C.2   429  VAL429      0.2260
    106  O         33.5660   15.5950   22.4270 O.2   429  VAL429     -0.2867
    107  CB        35.1240   16.5420   24.7110 C.3   429  VAL429      0.0252
    108  CG1       35.5870   16.1230   26.0980 C.3   429  VAL429      0.0019
    109  CG2       35.5940   17.9550   24.3850 C.3   429  VAL429      0.0019
    110  N         31.4040   13.8220   23.2150 N.3   458  ASN458     -0.1240
    111  CA        30.4440   14.1230   24.2600 C.3   458  ASN458      0.1653
    112  C         29.0360   13.6850   23.8870 C.2   458  ASN458      0.2266
    113  O         28.7490   13.3870   22.7250 O.2   458  ASN458     -0.2867
    114  CB        30.4530   15.6310   24.5580 C.3   458  ASN458      0.1155
    115  CG        31.6220   16.0570   25.4580 C.2   458  ASN458      0.2627
    116  OD1       31.9000   17.2520   25.6040 O.2   458  ASN458     -0.2716
    117  ND2       32.2860   15.0910   26.0780 N.am  458  ASN458     -0.0877
    118  N         31.0090   34.2420   25.9820 N.3   545  HIS545     -0.1241
    119  CA        32.4360   34.3700   25.7160 C.3   545  HIS545      0.1621
    120  C         32.6380   34.8280   24.2830 C.2   545  HIS545      0.2264
    121  O         31.8140   34.5430   23.4110 O.2   545  HIS545     -0.2867
    122  CB        33.1840   33.0530   25.9640 C.3   545  HIS545      0.0745
    123  CG        34.6740   33.2150   26.0270 C.ar  545  HIS545      0.0817
    124  ND1       35.4540   33.3910   24.9010 N.ar  545  HIS545     -0.2268
    125  CD2       35.5230   33.2530   27.0810 C.ar  545  HIS545      0.1154
    126  CE1       36.7200   33.5220   25.2580 C.ar  545  HIS545      0.1986
    127  NE2       36.7890   33.4430   26.5770 N.ar  545  HIS545     -0.2212
    128  N         34.6860   33.7090   22.0650 N.3   547  TYR547     -0.1241
    129  CA        34.8240   32.5990   21.1120 C.3   547  TYR547      0.1605
    130  C         33.4890   32.0440   20.6240 C.2   547  TYR547      0.2264
    131  O         33.4090   31.5260   19.5110 O.2   547  TYR547     -0.2867
    132  CB        35.7720   31.5010   21.6220 C.3   547  TYR547      0.0534
    133  CG        35.1860   30.3610   22.4320 C.ar  547  TYR547     -0.0201
    134  CD1       34.6110   29.2560   21.8050 C.ar  547  TYR547     -0.0009
    135  CD2       35.2840   30.3470   23.8200 C.ar  547  TYR547     -0.0009
    136  CE1       34.1030   28.1970   22.5400 C.ar  547  TYR547      0.0417
    137  CE2       34.7830   29.2840   24.5650 C.ar  547  TYR547      0.0417
    138  CZ        34.1980   28.2140   23.9200 C.ar  547  TYR547      0.1957
    139  OH        33.7050   27.1540   24.6520 O.3   547  TYR547     -0.2866
    140  N         35.4470   25.7480   19.8510 N.3   646  GLU646     -0.1231
    141  CA        34.4900   25.0250   20.6910 C.3   646  GLU646      0.1699
    142  C         34.8630   23.5560   20.6310 C.2   646  GLU646      0.2592
    143  O         34.6530   22.9190   19.6120 O.2   646  GLU646     -0.2718
    144  CB        33.0520   25.2480   20.1930 C.3   646  GLU646      0.0402
    145  CG        31.9600   24.7050   21.1040 C.3   646  GLU646      0.1161
    146  CD        31.7830   25.5450   22.3570 C.2   646  GLU646      0.3649
    147  OE1       32.4090   25.2140   23.3800 O.co2 646  GLU646     -0.2457
    148  OE2       31.0380   26.5420   22.3140 O.co2 646  GLU646     -0.2457
    149  N         35.4420   23.0310   21.7090 N.am  647  ALA647     -0.1966
    150  CA        35.9500   21.6550   21.7200 C.3   647  ALA647      0.1728
    151  C         34.8900   20.6480   21.2810 C.2   647  ALA647      0.2617
    152  O         35.1540   19.7790   20.4400 O.2   647  ALA647     -0.2715
    153  CB        36.4940   21.2950   23.0790 C.3   647  ALA647      0.0334
    154  N         33.6880   20.7750   21.8380 N.am  648  SER648     -0.1936
    155  CA        32.5840   19.9090   21.4440 C.3   648  SER648      0.2055
    156  C         31.2770   20.6850   21.3770 C.2   648  SER648      0.2644
    157  O         30.6530   20.7900   20.3100 O.2   648  SER648     -0.2714
    158  CB        32.4590   18.7350   22.4130 C.3   648  SER648      0.2130
    159  OG        31.2430   18.0340   22.2120 O.3   648  SER648     -0.2179
    160  N         30.8870   21.2560   22.5150 N.am  649  GLY649     -0.1939
    161  CA        29.5330   21.7530   22.7020 C.3   649  GLY649      0.2014
    162  C         28.6500   20.5830   23.1050 C.2   649  GLY649      0.2639
    163  O         28.9200   19.4450   22.7240 O.2   649  GLY649     -0.2714
    164  N         27.6200   20.8590   23.9000 N.am  650  THR650     -0.1950
    165  CA        26.6010   19.8630   24.2460 C.3   650  THR650      0.1897
    166  C         25.2110   20.4590   24.0610 C.2   650  THR650      0.2313
    167  O         24.2490   19.7430   23.7640 O.2   650  THR650     -0.2863
    168  CB        26.7550   19.3350   25.6900 C.3   650  THR650      0.1794
    169  OG1       26.8040   20.4440   26.5900 O.3   650  THR650     -0.2208
    170  CG2       28.0280   18.5100   25.8290 C.3   650  THR650      0.0378
@<TRIPOS>BOND
     1   131   130    2
     2   143   142    2
     3   140   141    1
     4   144   141    1
     5   144   145    1
     6   157   156    2
     7   152   151    2
     8   130   129    1
     9   142   141    1
    10   142   149   am
    11   145   146    1
    12   129   132    1
    13   129   128    1
    14   151   150    1
    15   151   154   am
    16   156   155    1
    17   156   160   am
    18   155   154    1
    19   155   158    1
    20   132   133    1
    21   149   150    1
    22   150   153    1
    23   134   133   ar
    24   134   136   ar
    25   159   158    1
    26    88    86    1
    27   148   146   ar
    28   146   147   ar
    29   105   106    2
    30   105   104    1
    31   133   135   ar
    32   160   161    1
    33   136   138   ar
    34   161   162    1
    35   163   162    2
    36   113   112    2
    37   162   164   am
    38   110   111    1
    39    86    87    1
    40    86    85    1
    41   121   120    2
    42   103   104    1
    43   104   107    1
    44   167   166    2
    45   135   137   ar
    46   112   111    1
    47   164   165    1
    48   138   137   ar
    49   138   139    1
    50   166   165    1
    51    81    82    1
    52   165   168    1
    53   111   114    1
    54   120   119    1
    55   109   107    1
    56    82    85    1
    57    82    83    1
    58   114   115    1
    59   107   108    1
    60   124   126   ar
    61   124   123   ar
    62    76    75    1
    63    76    77    2
    64    79    78    1
    65   126   127   ar
    66    75    78    1
    67    75    74    1
    68   115   116    2
    69   115   117   am
    70    96    95   ar
    71    83    84    2
    72   168   170    1
    73   168   169    1
    74   119   122    1
    75   119   118    1
    76    97    95   ar
    77   122   123    1
    78   123   125   ar
    79    78    80    1
    80    67    66    2
    81    95    94    1
    82    74    66   am
    83   127   125   ar
    84    66    65    1
    85    65    64    1
    86    65    68    1
    87    94    93    1
    88    89    90    1
    89    19    18    1
    90    93    90    1
    91    68    69    1
    92    90    91    1
    93    70    69   ar
    94    70    72   ar
    95    20    18    1
    96    69    71   ar
    97    98    91   am
    98    98    99    1
    99     2     1    1
   100     2     3    1
   101    18    17    1
   102   102    99    1
   103    72    73   ar
   104    91    92    2
   105    36    34   ar
   106     4     3    2
   107     3     5   am
   108    99   100    1
   109    17    14    1
   110    71    73   ar
   111   100   101    2
   112    53    51   ar
   113    53    55   ar
   114     5     6    1
   115    14    13    1
   116    14    15    1
   117    51    50   ar
   118    34    35   ar
   119    34    33    1
   120    62    61   ar
   121     6     9    1
   122     6     7    1
   123    16    15    2
   124    55    54   ar
   125    33    30    1
   126    32    31    2
   127     9    10    1
   128    63    61   ar
   129    11    10    1
   130    61    60    1
   131    50    49    1
   132    50    52   ar
   133    49    46    1
   134    46    45    1
   135    46    47    1
   136     7     8    2
   137    10    12    1
   138    40    39    2
   139    57    60    1
   140    57    56    1
   141    57    58    1
   142    45    39   am
   143    31    30    1
   144    31    37   am
   145    54    52   ar
   146    24    23    2
   147    30    29    1
   148    39    38    1
   149    47    48    2
   150    58    59    2
   151    41    38    1
   152    41    42    1
   153    37    38    1
   154    23    29   am
   155    23    22    1
   156    44    42   am
   157    42    43    2
   158    22    25    1
   159    22    21    1
   160    25    26    1
   161    26    27    2
   162    26    28   am
