@<TRIPOS>MOLECULE
tmp/2g9uA00.pdb
 163 153 0 0 0
SMALL
GASTEIGER

@<TRIPOS>ATOM
      1  N         28.9750   23.7550   30.3990 N.3   122  GLY122     -0.1210
      2  CA        29.0830   22.4660   29.7080 C.3   122  GLY122      0.1956
      3  C         29.8760   21.3890   30.4280 C.2   122  GLY122      0.2611
      4  O         29.5080   20.2140   30.3940 O.2   122  GLY122     -0.2717
      5  N         30.9720   21.7880   31.0680 N.am  123  LEU123     -0.1979
      6  CA        31.8090   20.8700   31.8450 C.3   123  LEU123      0.1596
      7  C         31.0240   20.2620   33.0220 C.2   123  LEU123      0.2287
      8  O         31.0270   19.0460   33.2220 O.2   123  LEU123     -0.2864
      9  CB        33.0660   21.6070   32.3310 C.3   123  LEU123      0.0297
     10  CG        34.0930   20.9370   33.2550 C.3   123  LEU123      0.0022
     11  CD1       34.6790   19.7490   32.5960 C.3   123  LEU123      0.0001
     12  CD2       35.2110   21.9040   33.5160 C.3   123  LEU123      0.0001
     13  N         28.0610   18.1070   31.6860 N.3   126  LEU126     -0.1245
     14  CA        28.6010   16.8470   31.1730 C.3   126  LEU126      0.1561
     15  C         28.7760   15.8340   32.2920 C.2   126  LEU126      0.2260
     16  O         28.3890   14.6770   32.1450 O.2   126  LEU126     -0.2867
     17  CB        29.9280   17.0520   30.4320 C.3   126  LEU126      0.0270
     18  CG        30.4290   15.8170   29.6700 C.3   126  LEU126      0.0019
     19  CD1       29.6120   15.5620   28.3860 C.3   126  LEU126      0.0001
     20  CD2       31.9200   15.9250   29.3650 C.3   126  LEU126      0.0001
     21  N         34.0760   31.0050   35.5390 N.3   263  ASN263     -0.1240
     22  CA        35.0620   30.8670   34.4320 C.3   263  ASN263      0.1653
     23  C         35.0860   29.4380   33.8760 C.2   263  ASN263      0.2266
     24  O         34.0560   28.9020   33.4420 O.2   263  ASN263     -0.2867
     25  CB        36.4890   31.3060   34.8330 C.3   263  ASN263      0.1155
     26  CG        36.8250   32.7430   34.4210 C.2   263  ASN263      0.2627
     27  OD1       37.0800   33.6080   35.2700 O.2   263  ASN263     -0.2716
     28  ND2       36.8620   32.9930   33.1130 N.am  263  ASN263     -0.0877
     29  N         39.0290   17.3340   33.3640 N.3   306  ASP306     -0.1239
     30  CA        39.8930   18.4900   33.1680 C.3   306  ASP306      0.1674
     31  C         41.1060   18.3650   34.1020 C.2   306  ASP306      0.2266
     32  O         41.3160   17.3110   34.7070 O.2   306  ASP306     -0.2867
     33  CB        39.1210   19.8010   33.3870 C.3   306  ASP306      0.1410
     34  CG        39.6350   20.9270   32.5200 C.2   306  ASP306      0.3668
     35  OD1       38.8190   21.7080   31.9930 O.co2 306  ASP306     -0.2456
     36  OD2       40.8610   21.0330   32.3570 O.co2 306  ASP306     -0.2456
     37  N         39.2900   19.4710   27.8690 N.3   344  HIS344     -0.1226
     38  CA        38.0110   20.0930   27.5410 C.3   344  HIS344      0.1752
     39  C         38.0910   21.3060   26.6220 C.2   344  HIS344      0.2596
     40  O         37.0580   21.7890   26.1650 O.2   344  HIS344     -0.2718
     41  CB        37.2750   20.4690   28.8300 C.3   344  HIS344      0.0759
     42  CG        36.7100   19.2910   29.5480 C.ar  344  HIS344      0.0818
     43  ND1       35.4830   18.7480   29.2290 N.ar  344  HIS344     -0.2268
     44  CD2       37.2180   18.5250   30.5430 C.ar  344  HIS344      0.1154
     45  CE1       35.2500   17.7090   30.0130 C.ar  344  HIS344      0.1986
     46  NE2       36.2870   17.5540   30.8190 N.ar  344  HIS344     -0.2212
     47  N         39.3030   21.8030   26.3710 N.am  345  THR345     -0.1953
     48  CA        39.5140   22.9730   25.5150 C.3   345  THR345      0.1897
     49  C         40.9830   23.1480   25.1110 C.2   345  THR345      0.2313
     50  O         41.8840   22.6720   25.8100 O.2   345  THR345     -0.2863
     51  CB        38.9950   24.2850   26.1660 C.3   345  THR345      0.1794
     52  OG1       38.9970   25.3330   25.1930 O.3   345  THR345     -0.2208
     53  CG2       39.8530   24.6990   27.3540 C.3   345  THR345      0.0378
     54  N         41.8620   26.3760   24.1920 N.3   347  LEU347     -0.1245
     55  CA        42.0410   27.7920   24.4680 C.3   347  LEU347      0.1561
     56  C         43.0130   27.9980   25.6320 C.2   347  LEU347      0.2260
     57  O         42.7940   27.4750   26.7260 O.2   347  LEU347     -0.2867
     58  CB        40.6960   28.4780   24.7310 C.3   347  LEU347      0.0270
     59  CG        39.7030   28.4190   23.5660 C.3   347  LEU347      0.0019
     60  CD1       38.3920   29.0440   23.9600 C.3   347  LEU347      0.0001
     61  CD2       40.2610   29.0730   22.2990 C.3   347  LEU347      0.0001
     62  N         43.7120   30.5460   27.5380 N.3   349  GLU349     -0.1231
     63  CA        43.1860   31.2370   28.7190 C.3   349  GLU349      0.1699
     64  C         42.5470   30.3030   29.7480 C.2   349  GLU349      0.2592
     65  O         42.3840   30.6720   30.9150 O.2   349  GLU349     -0.2718
     66  CB        42.2020   32.3540   28.3330 C.3   349  GLU349      0.0402
     67  CG        41.0290   31.9340   27.4370 C.3   349  GLU349      0.1161
     68  CD        41.2630   32.2820   25.9840 C.2   349  GLU349      0.3649
     69  OE1       42.2710   31.8150   25.4050 O.co2 349  GLU349     -0.2457
     70  OE2       40.4350   33.0320   25.4200 O.co2 349  GLU349     -0.2457
     71  N         42.1930   29.0960   29.3210 N.am  350  ALA350     -0.1980
     72  CA        41.5630   28.1350   30.2220 C.3   350  ALA350      0.1597
     73  C         42.5450   27.1260   30.8310 C.2   350  ALA350      0.2287
     74  O         42.2000   26.4310   31.7850 O.2   350  ALA350     -0.2864
     75  CB        40.4210   27.4230   29.5190 C.3   350  ALA350      0.0319
     76  N         37.0330   15.6260   23.4300 N.3   422  VAL422     -0.1245
     77  CA        35.5930   15.4870   23.6560 C.3   422  VAL422      0.1561
     78  C         34.7560   15.5730   22.3800 C.2   422  VAL422      0.2260
     79  O         33.5260   15.5920   22.4370 O.2   422  VAL422     -0.2867
     80  CB        35.0920   16.4940   24.7190 C.3   422  VAL422      0.0252
     81  CG1       35.5980   16.0880   26.1010 C.3   422  VAL422      0.0019
     82  CG2       35.5160   17.9290   24.3770 C.3   422  VAL422      0.0019
     83  N         31.4140   13.8040   23.1930 N.3   451  ASN451     -0.1240
     84  CA        30.4390   14.0850   24.2390 C.3   451  ASN451      0.1653
     85  C         29.0300   13.6110   23.8830 C.2   451  ASN451      0.2266
     86  O         28.7360   13.2750   22.7290 O.2   451  ASN451     -0.2867
     87  CB        30.4260   15.5840   24.5650 C.3   451  ASN451      0.1155
     88  CG        31.6080   16.0210   25.4510 C.2   451  ASN451      0.2627
     89  OD1       31.8710   17.2190   25.5960 O.2   451  ASN451     -0.2716
     90  ND2       32.3030   15.0630   26.0500 N.am  451  ASN451     -0.0877
     91  N         27.2070   30.1250   27.8180 N.3   536  ARG536     -0.1245
     92  CA        28.0080   31.1500   28.4850 C.3   536  ARG536      0.1563
     93  C         28.3630   32.2560   27.4900 C.2   536  ARG536      0.2260
     94  O         28.6460   31.9760   26.3220 O.2   536  ARG536     -0.2867
     95  CB        29.2960   30.5450   29.0480 C.3   536  ARG536      0.0307
     96  CG        29.1200   29.5300   30.1690 C.3   536  ARG536      0.0489
     97  CD        30.3990   28.6850   30.3200 C.3   536  ARG536      0.2205
     98  NE        31.5700   29.5460   30.2830 N.pl3 536  ARG536     -0.0865
     99  CZ        32.5600   29.4770   29.4020 C.cat 536  ARG536      0.5346
    100  NH1       33.5380   30.3600   29.4850 N.pl3 536  ARG536      0.1354
    101  NH2       32.5920   28.5440   28.4610 N.pl3 536  ARG536      0.1354
    102  N         30.8290   34.3730   25.8890 N.3   538  HIS538     -0.1241
    103  CA        32.2640   34.4480   25.6510 C.3   538  HIS538      0.1621
    104  C         32.5000   34.8990   24.2230 C.2   538  HIS538      0.2264
    105  O         31.6760   34.6410   23.3420 O.2   538  HIS538     -0.2867
    106  CB        32.9360   33.0910   25.8840 C.3   538  HIS538      0.0745
    107  CG        34.4150   33.1800   26.0990 C.ar  538  HIS538      0.0817
    108  ND1       35.3050   33.4590   25.0800 N.ar  538  HIS538     -0.2268
    109  CD2       35.1600   33.0450   27.2210 C.ar  538  HIS538      0.1154
    110  CE1       36.5330   33.4870   25.5650 C.ar  538  HIS538      0.1986
    111  NE2       36.4730   33.2360   26.8600 N.ar  538  HIS538     -0.2212
    112  N         34.5420   33.7160   22.0470 N.3   540  TYR540     -0.1227
    113  CA        34.7060   32.6080   21.0960 C.3   540  TYR540      0.1736
    114  C         33.3870   32.0130   20.6420 C.2   540  TYR540      0.2595
    115  O         33.3040   31.4800   19.5400 O.2   540  TYR540     -0.2718
    116  CB        35.6850   31.5320   21.5950 C.3   540  TYR540      0.0548
    117  CG        35.1330   30.3860   22.4240 C.ar  540  TYR540     -0.0200
    118  CD1       34.5780   29.2570   21.8120 C.ar  540  TYR540     -0.0009
    119  CD2       35.2480   30.3880   23.8150 C.ar  540  TYR540     -0.0009
    120  CE1       34.1160   28.1920   22.5600 C.ar  540  TYR540      0.0417
    121  CE2       34.7860   29.3170   24.5790 C.ar  540  TYR540      0.0417
    122  CZ        34.2250   28.2240   23.9440 C.ar  540  TYR540      0.1957
    123  OH        33.7690   27.1590   24.6870 O.3   540  TYR540     -0.2866
    124  N         32.3680   32.1040   21.4940 N.am  541  LYS541     -0.1980
    125  CA        31.0380   31.6040   21.1630 C.3   541  LYS541      0.1596
    126  C         30.3050   32.5620   20.2100 C.2   541  LYS541      0.2287
    127  O         29.2500   32.2320   19.6700 O.2   541  LYS541     -0.2864
    128  CB        30.2430   31.3400   22.4430 C.3   541  LYS541      0.0298
    129  CG        30.7910   30.1450   23.2280 C.3   541  LYS541      0.0038
    130  CD        30.1080   29.9710   24.5680 C.3   541  LYS541      0.0206
    131  CE        30.7940   28.9090   25.4180 C.3   541  LYS541      0.1093
    132  NZ        30.5530   27.5220   24.9100 N.3   541  LYS541     -0.1314
    133  N         35.4880   25.7130   19.8950 N.3   639  GLU639     -0.1231
    134  CA        34.5350   24.9730   20.7320 C.3   639  GLU639      0.1699
    135  C         34.8890   23.4930   20.7060 C.2   639  GLU639      0.2592
    136  O         34.6590   22.8310   19.7070 O.2   639  GLU639     -0.2718
    137  CB        33.1000   25.1950   20.2320 C.3   639  GLU639      0.0402
    138  CG        32.0150   24.6870   21.1660 C.3   639  GLU639      0.1161
    139  CD        31.8590   25.5630   22.3970 C.2   639  GLU639      0.3649
    140  OE1       32.4910   25.2450   23.4250 O.co2 639  GLU639     -0.2457
    141  OE2       31.1330   26.5790   22.3320 O.co2 639  GLU639     -0.2457
    142  N         35.4620   22.9750   21.7930 N.am  640  ALA640     -0.1966
    143  CA        35.9440   21.5860   21.8160 C.3   640  ALA640      0.1728
    144  C         34.8870   20.5740   21.3350 C.2   640  ALA640      0.2617
    145  O         35.1770   19.6990   20.5120 O.2   640  ALA640     -0.2715
    146  CB        36.4510   21.2160   23.1980 C.3   640  ALA640      0.0334
    147  N         33.6700   20.7080   21.8550 N.am  641  SER641     -0.1936
    148  CA        32.5570   19.8660   21.4520 C.3   641  SER641      0.2055
    149  C         31.2740   20.6730   21.3610 C.2   641  SER641      0.2644
    150  O         30.6750   20.7930   20.2840 O.2   641  SER641     -0.2714
    151  CB        32.3780   18.7080   22.4360 C.3   641  SER641      0.2130
    152  OG        31.1720   18.0050   22.1840 O.3   641  SER641     -0.2179
    153  N         30.8730   21.2470   22.4940 N.am  642  GLY642     -0.1939
    154  CA        29.5250   21.7640   22.6710 C.3   642  GLY642      0.2014
    155  C         28.6510   20.5930   23.0870 C.2   642  GLY642      0.2639
    156  O         28.9340   19.4580   22.7140 O.2   642  GLY642     -0.2714
    157  N         27.6240   20.8540   23.8920 N.am  643  THR643     -0.1950
    158  CA        26.6150   19.8390   24.2230 C.3   643  THR643      0.1897
    159  C         25.2120   20.4010   24.0420 C.2   643  THR643      0.2313
    160  O         24.2600   19.6550   23.8140 O.2   643  THR643     -0.2863
    161  CB        26.7540   19.2800   25.6550 C.3   643  THR643      0.1794
    162  OG1       26.8400   20.3620   26.5850 O.3   643  THR643     -0.2208
    163  CG2       27.9840   18.4050   25.7860 C.3   643  THR643      0.0378
@<TRIPOS>BOND
     1   115   114    2
     2   127   126    2
     3   136   135    2
     4   133   134    1
     5   126   125    1
     6   137   134    1
     7   137   138    1
     8   150   149    2
     9   145   144    2
    10   114   113    1
    11   114   124   am
    12   135   134    1
    13   135   142   am
    14   113   116    1
    15   113   112    1
    16   125   124    1
    17   125   128    1
    18   138   139    1
    19   144   143    1
    20   144   147   am
    21   149   148    1
    22   149   153   am
    23   148   147    1
    24   148   151    1
    25   116   117    1
    26   142   143    1
    27   118   117   ar
    28   118   120   ar
    29   143   146    1
    30   152   151    1
    31    61    59    1
    32   141   139   ar
    33    78    79    2
    34    78    77    1
    35   139   140   ar
    36   117   119   ar
    37   128   129    1
    38   153   154    1
    39   120   122   ar
    40   154   155    1
    41   156   155    2
    42    86    85    2
    43   155   157   am
    44    83    84    1
    45   129   130    1
    46   105   104    2
    47    76    77    1
    48    59    60    1
    49    59    58    1
    50    77    80    1
    51   160   159    2
    52   119   121   ar
    53    85    84    1
    54   157   158    1
    55   122   121   ar
    56   122   123    1
    57   159   158    1
    58    54    55    1
    59   104   103    1
    60   158   161    1
    61    84    87    1
    62    82    80    1
    63    55    58    1
    64    55    56    1
    65    87    88    1
    66   130   131    1
    67    80    81    1
    68   132   131    1
    69   108   110   ar
    70   108   107   ar
    71    49    48    1
    72    49    50    2
    73    52    51    1
    74    69    68   ar
    75    70    68   ar
    76    88    89    2
    77    88    90   am
    78    48    51    1
    79    48    47    1
    80   110   111   ar
    81    56    57    2
    82   103   106    1
    83   103   102    1
    84   161   163    1
    85   161   162    1
    86   106   107    1
    87    68    67    1
    88   107   109   ar
    89    40    39    2
    90    51    53    1
    91    94    93    2
    92    47    39   am
    93    39    38    1
    94   111   109   ar
    95    67    66    1
    96    93    92    1
    97    62    63    1
    98    38    37    1
    99    38    41    1
   100    91    92    1
   101    66    63    1
   102    19    18    1
   103   101    99    1
   104    92    95    1
   105    63    64    1
   106    41    42    1
   107    95    96    1
   108    43    42   ar
   109    43    45   ar
   110    71    64   am
   111    71    72    1
   112    20    18    1
   113    99   100    1
   114    99    98    2
   115    75    72    1
   116    42    44   ar
   117    18    17    1
   118     2     1    1
   119     2     3    1
   120    64    65    2
   121    45    46   ar
   122    96    97    1
   123    72    73    1
   124    98    97    1
   125     4     3    2
   126     3     5   am
   127    17    14    1
   128    44    46   ar
   129    73    74    2
   130     5     6    1
   131    14    13    1
   132    14    15    1
   133     6     9    1
   134     6     7    1
   135    35    34   ar
   136    16    15    2
   137     9    10    1
   138    36    34   ar
   139    34    33    1
   140    11    10    1
   141     7     8    2
   142    28    26   am
   143    30    29    1
   144    30    33    1
   145    30    31    1
   146    10    12    1
   147    24    23    2
   148    23    22    1
   149    31    32    2
   150    26    25    1
   151    26    27    2
   152    22    25    1
   153    22    21    1
