@<TRIPOS>MOLECULE
tmp/2g9vA00.pdb
 115 109 0 0 0
SMALL
GASTEIGER

@<TRIPOS>ATOM
      1  N         29.1640   23.8560   30.4710 N.3   123  GLY123     -0.1210
      2  CA        29.2830   22.5860   29.7510 C.3   123  GLY123      0.1956
      3  C         30.0080   21.4790   30.4890 C.2   123  GLY123      0.2611
      4  O         29.5570   20.3270   30.4890 O.2   123  GLY123     -0.2717
      5  N         31.1320   21.8270   31.1160 N.am  124  LEU124     -0.1979
      6  CA        31.9400   20.8750   31.8870 C.3   124  LEU124      0.1596
      7  C         31.1440   20.2510   33.0440 C.2   124  LEU124      0.2287
      8  O         31.1360   19.0220   33.2240 O.2   124  LEU124     -0.2864
      9  CB        33.2070   21.5680   32.4130 C.3   124  LEU124      0.0297
     10  CG        34.1110   20.8370   33.4220 C.3   124  LEU124      0.0022
     11  CD1       35.2220   20.1210   32.6990 C.3   124  LEU124      0.0001
     12  CD2       34.7200   21.8200   34.3830 C.3   124  LEU124      0.0001
     13  N         28.1790   18.1810   31.7170 N.3   127  LEU127     -0.1245
     14  CA        28.7120   16.9080   31.2160 C.3   127  LEU127      0.1561
     15  C         28.8580   15.8850   32.3360 C.2   127  LEU127      0.2260
     16  O         28.4620   14.7340   32.1820 O.2   127  LEU127     -0.2867
     17  CB        30.0620   17.1020   30.5170 C.3   127  LEU127      0.0270
     18  CG        30.5500   15.9170   29.6740 C.3   127  LEU127      0.0019
     19  CD1       29.7230   15.7580   28.3820 C.3   127  LEU127      0.0001
     20  CD2       32.0470   16.0480   29.3760 C.3   127  LEU127      0.0001
     21  N         39.4810   19.4790   28.0340 N.3   348  HIS348     -0.1226
     22  CA        38.2280   20.1410   27.6910 C.3   348  HIS348      0.1752
     23  C         38.3570   21.4260   26.8710 C.2   348  HIS348      0.2596
     24  O         37.3390   22.0100   26.5130 O.2   348  HIS348     -0.2718
     25  CB        37.4160   20.4380   28.9550 C.3   348  HIS348      0.0759
     26  CG        36.8110   19.2260   29.5890 C.ar  348  HIS348      0.0818
     27  ND1       35.5550   18.7640   29.2580 N.ar  348  HIS348     -0.2268
     28  CD2       37.2850   18.3860   30.5400 C.ar  348  HIS348      0.1154
     29  CE1       35.2810   17.6920   29.9800 C.ar  348  HIS348      0.1986
     30  NE2       36.3120   17.4450   30.7700 N.ar  348  HIS348     -0.2212
     31  N         39.5780   21.8780   26.5800 N.am  349  THR349     -0.1953
     32  CA        39.7430   23.0740   25.7400 C.3   349  THR349      0.1897
     33  C         41.1080   23.2110   25.0580 C.2   349  THR349      0.2313
     34  O         42.0650   22.5130   25.4030 O.2   349  THR349     -0.2863
     35  CB        39.4010   24.3870   26.5050 C.3   349  THR349      0.1794
     36  OG1       39.2840   25.4760   25.5740 O.3   349  THR349     -0.2208
     37  CG2       40.4720   24.6960   27.5520 C.3   349  THR349      0.0378
     38  N         37.2120   15.7020   23.5470 N.3   426  VAL426     -0.1245
     39  CA        35.7640   15.5710   23.7570 C.3   426  VAL426      0.1561
     40  C         34.9390   15.6360   22.4730 C.2   426  VAL426      0.2260
     41  O         33.7050   15.6870   22.5150 O.2   426  VAL426     -0.2867
     42  CB        35.2450   16.6070   24.7970 C.3   426  VAL426      0.0252
     43  CG1       35.7320   16.2350   26.1910 C.3   426  VAL426      0.0019
     44  CG2       35.6600   18.0270   24.4270 C.3   426  VAL426      0.0019
     45  N         31.5400   13.8800   23.2590 N.3   455  ASN455     -0.1240
     46  CA        30.5670   14.1480   24.2980 C.3   455  ASN455      0.1653
     47  C         29.1740   13.6500   23.9290 C.2   455  ASN455      0.2266
     48  O         28.9050   13.3170   22.7780 O.2   455  ASN455     -0.2867
     49  CB        30.5340   15.6490   24.6080 C.3   455  ASN455      0.1155
     50  CG        31.7280   16.1110   25.4620 C.2   455  ASN455      0.2627
     51  OD1       32.0050   17.3100   25.5550 O.2   455  ASN455     -0.2716
     52  ND2       32.4160   15.1690   26.0950 N.am  455  ASN455     -0.0877
     53  N         27.2540   30.2090   27.7900 N.3   540  ARG540     -0.1245
     54  CA        28.0800   31.2380   28.4420 C.3   540  ARG540      0.1563
     55  C         28.4400   32.3540   27.4640 C.2   540  ARG540      0.2260
     56  O         28.6950   32.0900   26.2910 O.2   540  ARG540     -0.2867
     57  CB        29.3760   30.6250   28.9610 C.3   540  ARG540      0.0307
     58  CG        29.2530   29.7730   30.2170 C.3   540  ARG540      0.0489
     59  CD        30.5560   28.9470   30.4290 C.3   540  ARG540      0.2205
     60  NE        31.7690   29.7520   30.2370 N.pl3 540  ARG540     -0.0865
     61  CZ        32.6500   29.5960   29.2470 C.cat 540  ARG540      0.5346
     62  NH1       33.7140   30.3940   29.1770 N.pl3 540  ARG540      0.1354
     63  NH2       32.4930   28.6450   28.3400 N.pl3 540  ARG540      0.1354
     64  N         34.6560   33.8780   22.0400 N.3   544  TYR544     -0.1227
     65  CA        34.8110   32.7660   21.0970 C.3   544  TYR544      0.1736
     66  C         33.4830   32.1750   20.6360 C.2   544  TYR544      0.2595
     67  O         33.4160   31.6510   19.5350 O.2   544  TYR544     -0.2718
     68  CB        35.7880   31.6910   21.6000 C.3   544  TYR544      0.0548
     69  CG        35.2260   30.5490   22.4250 C.ar  544  TYR544     -0.0200
     70  CD1       34.6340   29.4410   21.8110 C.ar  544  TYR544     -0.0009
     71  CD2       35.3640   30.5350   23.8150 C.ar  544  TYR544     -0.0009
     72  CE1       34.1560   28.3700   22.5630 C.ar  544  TYR544      0.0417
     73  CE2       34.8880   29.4650   24.5810 C.ar  544  TYR544      0.0417
     74  CZ        34.2890   28.3890   23.9460 C.ar  544  TYR544      0.1957
     75  OH        33.8160   27.3340   24.6890 O.3   544  TYR544     -0.2866
     76  N         32.4490   32.2650   21.4720 N.am  545  LYS545     -0.1980
     77  CA        31.0990   31.7920   21.1250 C.3   545  LYS545      0.1596
     78  C         30.3950   32.7340   20.1390 C.2   545  LYS545      0.2287
     79  O         29.3590   32.3800   19.5810 O.2   545  LYS545     -0.2864
     80  CB        30.2190   31.6650   22.3750 C.3   545  LYS545      0.0298
     81  CG        30.8670   31.0100   23.5790 C.3   545  LYS545      0.0038
     82  CD        30.4300   29.5930   23.7160 C.3   545  LYS545      0.0206
     83  CE        30.6920   29.0590   25.1130 C.3   545  LYS545      0.1093
     84  NZ        30.6350   27.5640   25.0600 N.3   545  LYS545     -0.1314
     85  N         35.6360   25.8450   19.8880 N.3   643  GLU643     -0.1231
     86  CA        34.6950   25.1080   20.7400 C.3   643  GLU643      0.1699
     87  C         35.0630   23.6320   20.7240 C.2   643  GLU643      0.2592
     88  O         34.8570   22.9690   19.7190 O.2   643  GLU643     -0.2718
     89  CB        33.2570   25.2940   20.2350 C.3   643  GLU643      0.0402
     90  CG        32.1750   24.7770   21.1610 C.3   643  GLU643      0.1161
     91  CD        32.0200   25.6350   22.4000 C.2   643  GLU643      0.3649
     92  OE1       32.6570   25.3120   23.4220 O.co2 643  GLU643     -0.2457
     93  OE2       31.2900   26.6450   22.3470 O.co2 643  GLU643     -0.2457
     94  N         35.6110   23.1210   21.8280 N.am  644  ALA644     -0.1966
     95  CA        36.1150   21.7430   21.8760 C.3   644  ALA644      0.1728
     96  C         35.0640   20.7130   21.4320 C.2   644  ALA644      0.2617
     97  O         35.3510   19.8310   20.6100 O.2   644  ALA644     -0.2715
     98  CB        36.6410   21.4090   23.2570 C.3   644  ALA644      0.0334
     99  N         33.8520   20.8360   21.9690 N.am  645  SER645     -0.1936
    100  CA        32.7540   19.9820   21.5530 C.3   645  SER645      0.2055
    101  C         31.4470   20.7470   21.4430 C.2   645  SER645      0.2644
    102  O         30.8600   20.8280   20.3600 O.2   645  SER645     -0.2714
    103  CB        32.5900   18.8020   22.5120 C.3   645  SER645      0.2130
    104  OG        31.3480   18.1590   22.2870 O.3   645  SER645     -0.2179
    105  N         31.0170   21.3280   22.5620 N.am  646  GLY646     -0.1939
    106  CA        29.6540   21.8210   22.7170 C.3   646  GLY646      0.2014
    107  C         28.7960   20.6470   23.1470 C.2   646  GLY646      0.2639
    108  O         29.1150   19.5120   22.8200 O.2   646  GLY646     -0.2714
    109  N         27.7480   20.9070   23.9220 N.am  647  THR647     -0.1950
    110  CA        26.7470   19.8860   24.2540 C.3   647  THR647      0.1897
    111  C         25.3540   20.4530   24.0780 C.2   647  THR647      0.2313
    112  O         24.4000   19.7110   23.8430 O.2   647  THR647     -0.2863
    113  CB        26.8770   19.3260   25.6880 C.3   647  THR647      0.1794
    114  OG1       26.9460   20.4070   26.6150 O.3   647  THR647     -0.2208
    115  CG2       28.1120   18.4500   25.8290 C.3   647  THR647      0.0378
@<TRIPOS>BOND
     1    67    66    2
     2    79    78    2
     3    88    87    2
     4    85    86    1
     5    78    77    1
     6    89    86    1
     7    89    90    1
     8   102   101    2
     9    97    96    2
    10    66    65    1
    11    66    76   am
    12    87    86    1
    13    87    94   am
    14    65    68    1
    15    65    64    1
    16    77    76    1
    17    77    80    1
    18    90    91    1
    19    96    95    1
    20    96    99   am
    21   101   100    1
    22   101   105   am
    23   100    99    1
    24   100   103    1
    25    68    69    1
    26    70    69   ar
    27    70    72   ar
    28    94    95    1
    29    95    98    1
    30   104   103    1
    31    93    91   ar
    32    80    81    1
    33    91    92   ar
    34    69    71   ar
    35    40    41    2
    36    40    39    1
    37   105   106    1
    38    72    74   ar
    39   106   107    1
    40    48    47    2
    41   108   107    2
    42   107   109   am
    43    45    46    1
    44    38    39    1
    45    81    82    1
    46    82    83    1
    47    39    42    1
    48    71    73   ar
    49   112   111    2
    50   109   110    1
    51    47    46    1
    52    74    73   ar
    53    74    75    1
    54   111   110    1
    55   110   113    1
    56    46    49    1
    57    44    42    1
    58    49    50    1
    59    42    43    1
    60    33    34    2
    61    33    32    1
    62    84    83    1
    63    50    51    2
    64    50    52   am
    65    36    35    1
    66   113   115    1
    67   113   114    1
    68    32    35    1
    69    32    31    1
    70    56    55    2
    71    35    37    1
    72    24    23    2
    73    31    23   am
    74    23    22    1
    75    55    54    1
    76    22    21    1
    77    22    25    1
    78    53    54    1
    79    63    61    1
    80    19    18    1
    81    54    57    1
    82    25    26    1
    83    57    58    1
    84    62    61    1
    85    61    60    2
    86    27    26   ar
    87    27    29   ar
    88    20    18    1
    89    26    28   ar
    90    18    17    1
    91     2     1    1
    92     2     3    1
    93    29    30   ar
    94    58    59    1
    95    60    59    1
    96     3     4    2
    97     3     5   am
    98    17    14    1
    99    28    30   ar
   100     5     6    1
   101    14    13    1
   102    14    15    1
   103     6     9    1
   104     6     7    1
   105    16    15    2
   106     9    10    1
   107    11    10    1
   108     7     8    2
   109    10    12    1
