@<TRIPOS>MOLECULE
tmp/2g9xA00.pdb
 175 168 0 0 0
SMALL
GASTEIGER

@<TRIPOS>ATOM
      1  N         -2.4600  -20.0710   28.3670 N.3    11  ILE11      -0.1231
      2  CA        -2.5750  -21.2510   27.5190 C.3    11  ILE11       0.1692
      3  C         -1.5190  -21.2440   26.4130 C.2    11  ILE11       0.2593
      4  O         -0.7970  -22.2230   26.2450 O.2    11  ILE11      -0.2718
      5  CB        -3.9860  -21.3860   26.9270 C.3    11  ILE11       0.0266
      6  CG1       -4.9610  -21.8570   28.0120 C.3    11  ILE11       0.0019
      7  CG2       -3.9700  -22.3440   25.7490 C.3    11  ILE11       0.0020
      8  CD1       -6.4160  -21.5560   27.7300 C.3    11  ILE11       0.0001
      9  N         -1.4290  -20.1350   25.6770 N.am   12  GLY12      -0.1942
     10  CA        -0.4910  -20.0040   24.5570 C.3    12  GLY12       0.2014
     11  C         -0.6370  -18.6880   23.8080 C.2    12  GLY12       0.2639
     12  O         -1.3140  -17.7660   24.2670 O.2    12  GLY12      -0.2714
     13  N          0.0090  -18.5980   22.6510 N.am   13  GLU13      -0.1963
     14  CA        -0.1210  -17.4310   21.7890 C.3    13  GLU13       0.1733
     15  C         -0.3840  -17.8900   20.3630 C.2    13  GLU13       0.2616
     16  O          0.3450  -18.7290   19.8250 O.2    13  GLU13      -0.2715
     17  CB         1.1390  -16.5720   21.8550 C.3    13  GLU13       0.0429
     18  CG         1.4290  -16.0040   23.2390 C.3    13  GLU13       0.1163
     19  CD         2.7910  -15.3390   23.3280 C.2    13  GLU13       0.3649
     20  OE1        3.2930  -14.8930   22.2700 O.co2  13  GLU13      -0.2457
     21  OE2        3.3540  -15.2600   24.4510 O.co2  13  GLU13      -0.2457
     22  N         -1.4400  -17.3570   19.7580 N.am   14  GLY14      -0.1955
     23  CA        -1.8140  -17.7550   18.4030 C.3    14  GLY14       0.1869
     24  C         -1.3450  -16.7610   17.3640 C.2    14  GLY14       0.2309
     25  O         -0.2000  -16.2980   17.4020 O.2    14  GLY14      -0.2863
     26  N         -3.8310  -16.0790   24.7450 N.3    19  VAL19      -0.1245
     27  CA        -4.9900  -16.7780   25.3090 C.3    19  VAL19       0.1561
     28  C         -4.7470  -17.1800   26.7720 C.2    19  VAL19       0.2260
     29  O         -3.6400  -17.5820   27.1320 O.2    19  VAL19      -0.2867
     30  CB        -5.3710  -18.0050   24.4620 C.3    19  VAL19       0.0252
     31  CG1       -6.5640  -18.7460   25.0690 C.3    19  VAL19       0.0019
     32  CG2       -5.6850  -17.5830   23.0260 C.3    19  VAL19       0.0019
     33  N        -11.8830  -19.1980   27.7160 N.3    32  ALA32      -0.1245
     34  CA       -10.5900  -18.7920   27.1970 C.3    32  ALA32       0.1562
     35  C        -10.6610  -17.3160   26.8120 C.2    32  ALA32       0.2260
     36  O        -11.6260  -16.8800   26.1860 O.2    32  ALA32      -0.2867
     37  CB       -10.2230  -19.6350   26.0210 C.3    32  ALA32       0.0290
     38  N        -15.2940  -23.2440   17.2710 N.3    65  VAL65      -0.1245
     39  CA       -15.1270  -22.6800   18.6020 C.3    65  VAL65       0.1561
     40  C        -16.0210  -21.4420   18.7870 C.2    65  VAL65       0.2260
     41  O        -16.1170  -20.5890   17.8930 O.2    65  VAL65      -0.2867
     42  CB       -13.6600  -22.3460   18.8540 C.3    65  VAL65       0.0252
     43  CG1      -13.3550  -20.8980   18.4370 C.3    65  VAL65       0.0019
     44  CG2      -13.3120  -22.6000   20.2940 C.3    65  VAL65       0.0019
     45  N        -14.0740  -16.6750   24.7120 N.3    81  PHE81      -0.1227
     46  CA       -14.4990  -17.9030   23.9850 C.3    81  PHE81       0.1736
     47  C        -14.9480  -19.0230   24.9210 C.2    81  PHE81       0.2595
     48  O        -14.5850  -19.0380   26.0970 O.2    81  PHE81      -0.2718
     49  CB       -13.3350  -18.5150   23.2020 C.3    81  PHE81       0.0547
     50  CG       -12.8440  -17.6960   22.0580 C.ar   81  PHE81      -0.0202
     51  CD1      -11.7980  -16.7950   22.2350 C.ar   81  PHE81      -0.0042
     52  CD2      -13.3870  -17.8590   20.7900 C.ar   81  PHE81      -0.0042
     53  CE1      -11.3130  -16.0570   21.1700 C.ar   81  PHE81      -0.0003
     54  CE2      -12.9120  -17.1170   19.7210 C.ar   81  PHE81      -0.0003
     55  CZ       -11.8740  -16.2130   19.9130 C.ar   81  PHE81      -0.0000
     56  N        -15.6780  -20.0000   24.3900 N.am   82  GLU82      -0.1965
     57  CA       -15.8290  -21.2620   25.1060 C.3    82  GLU82       0.1733
     58  C        -14.4310  -21.8730   25.2690 C.2    82  GLU82       0.2616
     59  O        -13.5460  -21.6420   24.4400 O.2    82  GLU82      -0.2715
     60  CB       -16.7570  -22.2220   24.3590 C.3    82  GLU82       0.0429
     61  CG       -16.0620  -23.0620   23.3020 C.3    82  GLU82       0.1163
     62  CD       -16.9840  -24.0610   22.6440 C.2    82  GLU82       0.3649
     63  OE1      -17.3100  -25.0900   23.2820 O.co2  82  GLU82      -0.2457
     64  OE2      -17.3670  -23.8120   21.4810 O.co2  82  GLU82      -0.2457
     65  N        -14.2300  -22.6330   26.3410 N.am   83  PHE83      -0.1960
     66  CA       -12.9230  -23.1960   26.6320 C.3    83  PHE83       0.1771
     67  C        -12.8930  -24.6710   26.2580 C.2    83  PHE83       0.2619
     68  O        -13.8180  -25.4160   26.6070 O.2    83  PHE83      -0.2715
     69  CB       -12.6210  -23.0100   28.1140 C.3    83  PHE83       0.0574
     70  CG       -11.4470  -23.8090   28.6160 C.ar   83  PHE83      -0.0200
     71  CD1      -10.1590  -23.2830   28.5710 C.ar   83  PHE83      -0.0042
     72  CD2      -11.6340  -25.0740   29.1580 C.ar   83  PHE83      -0.0042
     73  CE1       -9.0710  -24.0140   29.0400 C.ar   83  PHE83      -0.0003
     74  CE2      -10.5460  -25.8130   29.6330 C.ar   83  PHE83      -0.0003
     75  CZ        -9.2610  -25.2820   29.5730 C.ar   83  PHE83      -0.0000
     76  N        -11.8430  -25.0870   25.5500 N.am   84  LEU84      -0.1963
     77  CA       -11.6050  -26.5120   25.3090 C.3    84  LEU84       0.1728
     78  C        -10.3560  -26.9990   26.0290 C.2    84  LEU84       0.2616
     79  O         -9.5250  -26.1900   26.4280 O.2    84  LEU84      -0.2715
     80  CB       -11.5830  -26.8510   23.8180 C.3    84  LEU84       0.0311
     81  CG       -12.9970  -26.9100   23.2210 C.3    84  LEU84       0.0022
     82  CD1      -13.4050  -25.5670   22.6130 C.3    84  LEU84       0.0001
     83  CD2      -13.1250  -28.0080   22.1860 C.3    84  LEU84       0.0001
     84  N        -10.2420  -28.3200   26.1830 N.am   85  HIS85      -0.1959
     85  CA        -9.2980  -28.9740   27.1120 C.3    85  HIS85       0.1787
     86  C         -7.8710  -29.2100   26.6130 C.2    85  HIS85       0.2620
     87  O         -6.9270  -29.1660   27.4020 O.2    85  HIS85      -0.2715
     88  CB        -9.8950  -30.2850   27.6070 C.3    85  HIS85       0.0785
     89  CG       -11.1970  -30.1000   28.3050 C.ar   85  HIS85       0.0821
     90  ND1      -11.2870  -29.9160   29.6670 N.ar   85  HIS85      -0.2267
     91  CD2      -12.4590  -29.9970   27.8240 C.ar   85  HIS85       0.1154
     92  CE1      -12.5540  -29.7380   29.9990 C.ar   85  HIS85       0.1986
     93  NE2      -13.2850  -29.7870   28.9000 N.ar   85  HIS85      -0.2212
     94  N         -7.7120  -29.4800   25.3210 N.am   86  GLN86      -0.1963
     95  CA        -6.3870  -29.4640   24.6900 C.3    86  GLN86       0.1733
     96  C         -6.4720  -29.4060   23.1820 C.2    86  GLN86       0.2616
     97  O         -7.5660  -29.4530   22.6320 O.2    86  GLN86      -0.2715
     98  CB        -5.4640  -30.5870   25.1890 C.3    86  GLN86       0.0408
     99  CG        -5.8170  -32.0010   24.8300 C.3    86  GLN86       0.0908
    100  CD        -4.7880  -32.9810   25.3770 C.2    86  GLN86       0.2608
    101  OE1       -4.2450  -32.7910   26.4690 O.2    86  GLN86      -0.2717
    102  NE2       -4.5110  -34.0290   24.6220 N.am   86  GLN86      -0.0878
    103  N         -5.3230  -29.2720   22.5220 N.am   87  ASP87      -0.1971
    104  CA        -5.2930  -29.2690   21.0680 C.3    87  ASP87       0.1709
    105  C         -4.9090  -30.6380   20.5390 C.2    87  ASP87       0.2293
    106  O         -4.2640  -31.4340   21.2430 O.2    87  ASP87      -0.2864
    107  CB        -4.3750  -28.1750   20.5010 C.3    87  ASP87       0.1436
    108  CG        -2.9420  -28.3220   20.9350 C.2    87  ASP87       0.3671
    109  OD1       -2.3420  -29.4010   20.7390 O.co2  87  ASP87      -0.2456
    110  OD2       -2.3960  -27.3340   21.4680 O.co2  87  ASP87      -0.2456
    111  N         -2.6860  -31.5940   18.4650 N.3    89  LYS89      -0.1231
    112  CA        -1.2420  -31.8460   18.4970 C.3    89  LYS89       0.1693
    113  C         -0.7890  -32.5300   19.7720 C.2    89  LYS89       0.2591
    114  O         -0.1310  -33.5670   19.7000 O.2    89  LYS89      -0.2718
    115  CB        -0.4280  -30.5730   18.2390 C.3    89  LYS89       0.0285
    116  CG         1.0940  -30.7620   18.2260 C.3    89  LYS89       0.0035
    117  CD         1.5670  -31.7250   17.1240 C.3    89  LYS89       0.0206
    118  CE         3.0980  -31.6390   16.9150 C.3    89  LYS89       0.1093
    119  NZ         3.6910  -32.9090   16.3820 N.3    89  LYS89      -0.1314
    120  N         -1.1460  -31.9660   20.9250 N.am   90  LYS90      -0.1980
    121  CA        -0.8070  -32.5780   22.2240 C.3    90  LYS90       0.1596
    122  C         -1.4240  -33.9670   22.4150 C.2    90  LYS90       0.2287
    123  O         -0.7850  -34.8610   22.9730 O.2    90  LYS90      -0.2864
    124  CB        -1.2110  -31.6760   23.3900 C.3    90  LYS90       0.0298
    125  CG        -0.6160  -32.1100   24.7070 C.3    90  LYS90       0.0038
    126  CD        -1.1940  -31.3500   25.8830 C.3    90  LYS90       0.0206
    127  CE        -0.2780  -31.4580   27.1000 C.3    90  LYS90       0.1093
    128  NZ        -0.7070  -30.5430   28.2080 N.3    90  LYS90      -0.1314
    129  N         -4.4980  -26.9700   11.0750 N.3   130  LYS130     -0.1245
    130  CA        -3.3080  -27.6550   11.5810 C.3   130  LYS130      0.1561
    131  C         -3.6340  -28.0860   13.0080 C.2   130  LYS130      0.2260
    132  O         -4.4860  -27.4640   13.6480 O.2   130  LYS130     -0.2867
    133  CB        -2.0590  -26.7580   11.5390 C.3   130  LYS130      0.0271
    134  CG        -1.9800  -25.6600   12.6040 C.3   130  LYS130      0.0035
    135  CD        -0.8890  -24.6340   12.2920 C.3   130  LYS130      0.0206
    136  CE        -0.6040  -23.7230   13.4950 C.3   130  LYS130      0.1093
    137  NZ        -0.0850  -22.3600   13.1340 N.3   130  LYS130     -0.1314
    138  N         -2.4230  -27.8160   15.9540 N.3   132  GLN132     -0.1231
    139  CA        -2.3590  -26.7360   16.9330 C.3   132  GLN132      0.1698
    140  C         -3.6770  -25.9210   17.0060 C.2   132  GLN132      0.2592
    141  O         -4.0670  -25.4680   18.0800 O.2   132  GLN132     -0.2718
    142  CB        -1.1780  -25.8110   16.6200 C.3   132  GLN132      0.0381
    143  CG         0.2340  -26.4470   16.7420 C.3   132  GLN132      0.0905
    144  CD         0.6080  -27.4460   15.6250 C.2   132  GLN132      0.2608
    145  OE1        0.0460  -27.4460   14.5300 O.2   132  GLN132     -0.2717
    146  NE2        1.5660  -28.3040   15.9210 N.am  132  GLN132     -0.0878
    147  N         -4.3570  -25.7550   15.8710 N.am  133  ASN133     -0.1974
    148  CA        -5.6140  -24.9800   15.8070 C.3   133  ASN133      0.1688
    149  C         -6.9140  -25.7880   15.9570 C.2   133  ASN133      0.2292
    150  O         -8.0050  -25.2390   15.8230 O.2   133  ASN133     -0.2864
    151  CB        -5.6760  -24.1640   14.5070 C.3   133  ASN133      0.1181
    152  CG        -4.7290  -22.9870   14.5120 C.2   133  ASN133      0.2629
    153  OD1       -4.2360  -22.5850   15.5640 O.2   133  ASN133     -0.2716
    154  ND2       -4.4580  -22.4260   13.3270 N.am  133  ASN133     -0.0877
    155  N         -9.1850  -28.0400   18.4630 N.3   135  LEU135     -0.1245
    156  CA        -9.2900  -28.2390   19.9140 C.3   135  LEU135      0.1561
    157  C        -10.2890  -29.3120   20.3350 C.2   135  LEU135      0.2260
    158  O        -11.3640  -29.4370   19.7570 O.2   135  LEU135     -0.2867
    159  CB        -9.6340  -26.9130   20.5930 C.3   135  LEU135      0.0270
    160  CG        -8.7980  -25.7170   20.1410 C.3   135  LEU135      0.0019
    161  CD1       -9.2740  -24.4670   20.8800 C.3   135  LEU135      0.0001
    162  CD2       -7.2940  -25.9530   20.3750 C.3   135  LEU135      0.0001
    163  N        -10.4630  -23.7490   15.6820 N.3   145  ALA145     -0.1231
    164  CA       -10.1250  -22.5110   16.3990 C.3   145  ALA145      0.1694
    165  C         -9.1440  -21.5960   15.6390 C.2   145  ALA145      0.2592
    166  O         -8.6410  -21.9430   14.5690 O.2   145  ALA145     -0.2718
    167  CB        -9.5780  -22.8350   17.7560 C.3   145  ALA145      0.0304
    168  N         -8.8720  -20.4340   16.2270 N.am  146  ASP146     -0.1974
    169  CA        -8.0050  -19.3830   15.6510 C.3   146  ASP146      0.1709
    170  C         -8.3360  -19.0310   14.1900 C.2   146  ASP146      0.2293
    171  O         -7.7000  -19.5280   13.2540 O.2   146  ASP146     -0.2864
    172  CB        -6.5130  -19.7150   15.8320 C.3   146  ASP146      0.1436
    173  CG        -5.6000  -18.4940   15.6630 C.2   146  ASP146      0.3671
    174  OD1       -6.0970  -17.3650   15.4300 O.co2 146  ASP146     -0.2456
    175  OD2       -4.3600  -18.6660   15.7880 O.co2 146  ASP146     -0.2456
@<TRIPOS>BOND
     1   129   130    1
     2   133   130    1
     3   133   134    1
     4   130   131    1
     5   135   134    1
     6   135   136    1
     7   131   132    2
     8   137   136    1
     9   171   170    2
    10   154   152   am
    11   170   169    1
    12   151   152    1
    13   151   148    1
    14   152   153    2
    15   145   144    2
    16   166   165    2
    17   174   173   ar
    18   144   146   am
    19   144   143    1
    20   165   168   am
    21   165   164    1
    22   169   172    1
    23   169   168    1
    24   173   175   ar
    25   173   172    1
    26   163   164    1
    27   148   147    1
    28   148   149    1
    29   150   149    2
    30   147   140   am
    31   138   139    1
    32   119   118    1
    33   164   167    1
    34   142   143    1
    35   142   139    1
    36   118   117    1
    37   139   140    1
    38   140   141    2
    39   117   116    1
    40    38    39    1
    41    24    25    2
    42    24    23    1
    43    41    40    2
    44   116   115    1
    45   115   112    1
    46    23    22    1
    47    43    42    1
    48   155   156    1
    49   111   112    1
    50   112   113    1
    51    39    40    1
    52    39    42    1
    53    42    44    1
    54   114   113    2
    55    54    55   ar
    56    54    52   ar
    57   158   157    2
    58    22    15   am
    59   113   120   am
    60    16    15    2
    61    55    53   ar
    62   156   157    1
    63   156   159    1
    64   160   162    1
    65   160   159    1
    66   160   161    1
    67    15    14    1
    68   107   108    1
    69   107   104    1
    70   105   104    1
    71   105   106    2
    72   109   108   ar
    73    52    50   ar
    74   120   121    1
    75   108   110   ar
    76   104   103    1
    77    53    51   ar
    78    64    62   ar
    79    14    17    1
    80    14    13    1
    81    17    18    1
    82    50    51   ar
    83    50    49    1
    84    83    81    1
    85   121   122    1
    86   121   124    1
    87    20    19   ar
    88   122   123    2
    89   103    96   am
    90    82    81    1
    91    97    96    2
    92    62    63   ar
    93    62    61    1
    94    13    11   am
    95    32    30    1
    96    96    95    1
    97    49    46    1
    98    81    80    1
    99    18    19    1
   100    61    60    1
   101    19    21   ar
   102   124   125    1
   103    11    12    2
   104    11    10    1
   105    80    77    1
   106    46    45    1
   107    46    47    1
   108    60    57    1
   109    56    47   am
   110    56    57    1
   111    59    58    2
   112    30    31    1
   113    30    27    1
   114    10     9    1
   115   102   100   am
   116    95    98    1
   117    95    94    1
   118   125   126    1
   119    26    27    1
   120    99    98    1
   121    99   100    1
   122    47    48    2
   123    57    58    1
   124    58    65   am
   125    27    28    1
   126    77    76    1
   127    77    78    1
   128    94    86   am
   129   100   101    2
   130    76    67   am
   131     9     3   am
   132     7     5    1
   133   126   127    1
   134    37    34    1
   135    78    84   am
   136    78    79    2
   137    84    85    1
   138    36    35    2
   139     4     3    2
   140    67    68    2
   141    67    66    1
   142    65    66    1
   143     3     2    1
   144    86    85    1
   145    86    87    2
   146    66    69    1
   147    28    29    2
   148    35    34    1
   149     5     2    1
   150     5     6    1
   151   127   128    1
   152    85    88    1
   153    34    33    1
   154     2     1    1
   155    88    89    1
   156     8     6    1
   157    91    89   ar
   158    91    93   ar
   159    69    70    1
   160    89    90   ar
   161    71    70   ar
   162    71    73   ar
   163    70    72   ar
   164    93    92   ar
   165    73    75   ar
   166    72    74   ar
   167    75    74   ar
   168    90    92   ar
