@<TRIPOS>MOLECULE
tmp/2g9zA00.pdb
 97 94 0 0 0
SMALL
GASTEIGER

@<TRIPOS>ATOM
      1  N         29.6400   46.7500   32.4420 N.3    84  ASP84      -0.1239
      2  CA        29.8350   45.3050   32.3820 C.3    84  ASP84       0.1674
      3  C         31.3120   44.9360   32.2710 C.2    84  ASP84       0.2266
      4  O         31.6730   43.7630   32.3080 O.2    84  ASP84      -0.2867
      5  CB        29.0500   44.7000   31.2180 C.3    84  ASP84       0.1410
      6  CG        29.3120   45.4080   29.9140 C.2    84  ASP84       0.3668
      7  OD1       30.1790   46.3010   29.8900 O.co2  84  ASP84      -0.2456
      8  OD2       28.6450   45.0660   28.9230 O.co2  84  ASP84      -0.2456
      9  N         33.6150   45.0770   29.7320 N.3    86  ASP86      -0.1225
     10  CA        34.1300   44.3120   28.6070 C.3    86  ASP86       0.1805
     11  C         35.0480   45.1680   27.7380 C.2    86  ASP86       0.2598
     12  O         35.5220   44.7190   26.6960 O.2    86  ASP86      -0.2718
     13  CB        32.9890   43.7380   27.7660 C.3    86  ASP86       0.1424
     14  CG        31.9730   44.7810   27.3610 C.2    86  ASP86       0.3668
     15  OD1       32.1920   45.9840   27.6060 O.co2  86  ASP86      -0.2456
     16  OD2       30.9480   44.3810   26.7850 O.co2  86  ASP86      -0.2456
     17  N         35.3040   46.4000   28.1730 N.am   87  SER87      -0.1952
     18  CA        36.1850   47.2880   27.4290 C.3    87  SER87       0.1924
     19  C         37.3400   47.7780   28.2990 C.2    87  SER87       0.2314
     20  O         38.4590   47.9280   27.8160 O.2    87  SER87      -0.2863
     21  CB        35.4040   48.4830   26.8600 C.3    87  SER87       0.2116
     22  OG        34.9250   49.3290   27.8900 O.3    87  SER87      -0.2180
     23  N         24.3040   43.0510   33.3240 N.3   108  SER108     -0.1202
     24  CA        23.0440   43.0870   32.5800 C.3   108  SER108      0.2020
     25  C         23.2320   43.3630   31.0950 C.2   108  SER108      0.2619
     26  O         24.0030   44.2410   30.7100 O.2   108  SER108     -0.2717
     27  CB        22.0980   44.1420   33.1380 C.3   108  SER108      0.2103
     28  OG        20.9930   44.2780   32.2580 O.3   108  SER108     -0.2182
     29  N         22.4880   42.6230   30.2790 N.am  109  GLN109     -0.1965
     30  CA        22.5350   42.7350   28.8250 C.3   109  GLN109      0.1733
     31  C         21.4500   43.6360   28.2720 C.2   109  GLN109      0.2616
     32  O         21.2920   43.7530   27.0570 O.2   109  GLN109     -0.2715
     33  CB        22.3760   41.3500   28.1950 C.3   109  GLN109      0.0408
     34  CG        23.3790   40.3450   28.6960 C.3   109  GLN109      0.0908
     35  CD        24.7740   40.8660   28.5520 C.2   109  GLN109      0.2608
     36  OE1       25.7460   40.2260   28.9540 O.2   109  GLN109     -0.2717
     37  NE2       24.8870   42.0500   27.9690 N.am  109  GLN109     -0.0878
     38  N         20.7050   44.2750   29.1610 N.am  110  TYR110     -0.1960
     39  CA        19.6110   45.1240   28.7360 C.3   110  TYR110      0.1771
     40  C         19.8000   46.6140   28.9850 C.2   110  TYR110      0.2620
     41  O         18.9940   47.4260   28.5370 O.2   110  TYR110     -0.2715
     42  CB        18.3190   44.5820   29.3600 C.3   110  TYR110      0.0574
     43  CG        17.9710   43.2290   28.7670 C.ar  110  TYR110     -0.0198
     44  CD1       17.0700   43.1240   27.7100 C.ar  110  TYR110     -0.0009
     45  CD2       18.6410   42.0720   29.1760 C.ar  110  TYR110     -0.0009
     46  CE1       16.8480   41.9070   27.0650 C.ar  110  TYR110      0.0417
     47  CE2       18.4270   40.8480   28.5340 C.ar  110  TYR110      0.0417
     48  CZ        17.5300   40.7780   27.4780 C.ar  110  TYR110      0.1957
     49  OH        17.3200   39.5840   26.8260 O.3   110  TYR110     -0.2866
     50  N         20.8810   46.9680   29.6730 N.am  111  TYR111     -0.1960
     51  CA        21.2180   48.3670   29.9470 C.3   111  TYR111      0.1771
     52  C         22.6820   48.5500   29.5350 C.2   111  TYR111      0.2620
     53  O         23.4900   47.6470   29.7440 O.2   111  TYR111     -0.2715
     54  CB        21.1000   48.6660   31.4420 C.3   111  TYR111      0.0574
     55  CG        19.7280   48.4600   32.0420 C.ar  111  TYR111     -0.0198
     56  CD1       18.7690   49.4720   32.0040 C.ar  111  TYR111     -0.0009
     57  CD2       19.4010   47.2630   32.6820 C.ar  111  TYR111     -0.0009
     58  CE1       17.5170   49.3020   32.5990 C.ar  111  TYR111      0.0417
     59  CE2       18.1510   47.0800   33.2770 C.ar  111  TYR111      0.0417
     60  CZ        17.2170   48.1070   33.2340 C.ar  111  TYR111      0.1957
     61  OH        15.9950   47.9430   33.8450 O.3   111  TYR111     -0.2866
     62  N         23.0360   49.6950   28.9560 N.am  112  ASN112     -0.1958
     63  CA        24.4310   49.9150   28.5720 C.3   112  ASN112      0.1819
     64  C         25.2090   50.6120   29.6910 C.2   112  ASN112      0.2621
     65  O         24.6330   51.0250   30.7000 O.2   112  ASN112     -0.2715
     66  CB        24.5340   50.7350   27.2740 C.3   112  ASN112      0.1195
     67  CG        23.9790   52.1430   27.4120 C.2   112  ASN112      0.2630
     68  OD1       23.7920   52.6520   28.5180 O.2   112  ASN112     -0.2716
     69  ND2       23.7240   52.7840   26.2780 N.am  112  ASN112     -0.0877
     70  N         26.5160   50.7530   29.5080 N.am  113  ASP113     -0.1971
     71  CA        27.3470   51.3810   30.5200 C.3   113  ASP113      0.1709
     72  C         26.9380   52.8040   30.8360 C.2   113  ASP113      0.2293
     73  O         27.1000   53.2660   31.9640 O.2   113  ASP113     -0.2864
     74  CB        28.8090   51.3470   30.0930 C.3   113  ASP113      0.1436
     75  CG        29.3150   49.9410   29.9100 C.2   113  ASP113      0.3671
     76  OD1       28.8230   49.0350   30.6180 O.co2 113  ASP113     -0.2456
     77  OD2       30.2040   49.7430   29.0650 O.co2 113  ASP113     -0.2456
     78  N         23.8580   52.5710   33.1710 N.3   116  LYS116     -0.1245
     79  CA        24.2880   52.0500   34.4640 C.3   116  LYS116      0.1561
     80  C         25.0260   53.1350   35.2350 C.2   116  LYS116      0.2260
     81  O         24.8810   53.2420   36.4530 O.2   116  LYS116     -0.2867
     82  CB        25.1860   50.8240   34.2750 C.3   116  LYS116      0.0271
     83  CG        24.4340   49.6180   33.7180 C.3   116  LYS116      0.0035
     84  CD        25.3780   48.5510   33.1910 C.3   116  LYS116      0.0206
     85  CE        24.5950   47.3830   32.6090 C.3   116  LYS116      0.1093
     86  NZ        25.4630   46.3270   32.0290 N.3   116  LYS116     -0.1314
     87  N         30.5660   54.9950   17.9700 N.3   174  ARG174     -0.1245
     88  CA        29.6360   54.0790   17.3250 C.3   174  ARG174      0.1563
     89  C         28.2780   54.7930   17.3200 C.2   174  ARG174      0.2260
     90  O         27.8130   55.2800   18.3540 O.2   174  ARG174     -0.2867
     91  CB        29.5700   52.7750   18.1140 C.3   174  ARG174      0.0307
     92  CG        29.3120   51.5410   17.2720 C.3   174  ARG174      0.0489
     93  CD        29.3420   50.3110   18.1580 C.3   174  ARG174      0.2205
     94  NE        28.2270   50.3190   19.1000 N.pl3 174  ARG174     -0.0865
     95  CZ        28.2520   49.7330   20.2900 C.cat 174  ARG174      0.5346
     96  NH1       29.3410   49.0910   20.6980 N.pl3 174  ARG174      0.1354
     97  NH2       27.1790   49.7700   21.0630 N.pl3 174  ARG174      0.1354
@<TRIPOS>BOND
     1    92    91    1
     2    92    93    1
     3    89    88    1
     4    89    90    2
     5    88    87    1
     6    88    91    1
     7    93    94    1
     8    94    95    2
     9    95    96    1
    10    95    97    1
    11    69    67   am
    12    12    11    2
    13    16    14   ar
    14    49    48    1
    15    21    18    1
    16    21    22    1
    17    32    31    2
    18    46    48   ar
    19    46    44   ar
    20    66    67    1
    21    66    63    1
    22    14    15   ar
    23    14    13    1
    24    67    68    2
    25    18    17    1
    26    18    19    1
    27    48    47   ar
    28    44    43   ar
    29    11    17   am
    30    11    10    1
    31    13    10    1
    32    20    19    2
    33    37    35   am
    34    33    34    1
    35    33    30    1
    36    31    30    1
    37    31    38   am
    38    47    45   ar
    39    41    40    2
    40    35    34    1
    41    35    36    2
    42    63    62    1
    43    63    64    1
    44    10     9    1
    45    39    40    1
    46    39    38    1
    47    39    42    1
    48    43    45   ar
    49    43    42    1
    50    30    29    1
    51     8     6   ar
    52    62    52   am
    53    40    50   am
    54    77    75   ar
    55    70    64   am
    56    70    71    1
    57    52    53    2
    58    52    51    1
    59    50    51    1
    60    64    65    2
    61     7     6   ar
    62    75    74    1
    63    75    76   ar
    64     6     5    1
    65    51    54    1
    66    74    71    1
    67    29    25   am
    68    71    72    1
    69    26    25    2
    70    72    73    2
    71    25    24    1
    72     5     2    1
    73    54    55    1
    74    56    55   ar
    75    56    58   ar
    76    86    85    1
    77    55    57   ar
    78    28    27    1
    79     3     4    2
    80     3     2    1
    81     2     1    1
    82    24    27    1
    83    24    23    1
    84    58    60   ar
    85    85    84    1
    86    57    59   ar
    87    78    79    1
    88    84    83    1
    89    60    59   ar
    90    60    61    1
    91    83    82    1
    92    82    79    1
    93    79    80    1
    94    80    81    2
