@<TRIPOS>MOLECULE
tmp/2g9zA01.pdb
 85 82 0 0 0
SMALL
GASTEIGER

@<TRIPOS>ATOM
      1  N         11.8890   82.6690    8.5130 N.3     7  VAL7       -0.1245
      2  CA        13.3170   82.5720    8.7900 C.3     7  VAL7        0.1561
      3  C         13.8480   83.9770    8.5220 C.2     7  VAL7        0.2260
      4  O         13.7440   84.4920    7.4060 O.2     7  VAL7       -0.2867
      5  CB        14.0450   81.5650    7.8640 C.3     7  VAL7        0.0252
      6  CG1       15.5540   81.6490    8.1000 C.3     7  VAL7        0.0019
      7  CG2       13.5550   80.1450    8.1490 C.3     7  VAL7        0.0019
      8  N         28.6680   78.2990   15.2340 N.3   235  THR235     -0.1218
      9  CA        27.6750   77.4660   14.5700 C.3   235  THR235      0.1862
     10  C         26.8240   76.6990   15.5820 C.2   235  THR235      0.2287
     11  O         27.3040   76.3280   16.6500 O.2   235  THR235     -0.2866
     12  CB        28.3620   76.4560   13.6360 C.3   235  THR235      0.1770
     13  OG1       28.9880   77.1630   12.5620 O.3   235  THR235     -0.2211
     14  CG2       27.3560   75.4640   13.0770 C.3   235  THR235      0.0375
     15  N         19.9820   82.8210   11.6710 N.3   256  TYR256     -0.1241
     16  CA        18.7850   82.5280   10.8980 C.3   256  TYR256      0.1605
     17  C         17.6960   82.2680   11.9350 C.2   256  TYR256      0.2264
     18  O         17.4130   81.1240   12.2950 O.2   256  TYR256     -0.2867
     19  CB        19.0250   81.3050   10.0100 C.3   256  TYR256      0.0534
     20  CG        20.2100   81.5000    9.0940 C.ar  256  TYR256     -0.0201
     21  CD1       20.0690   82.1220    7.8520 C.ar  256  TYR256     -0.0009
     22  CD2       21.4890   81.1300    9.5000 C.ar  256  TYR256     -0.0009
     23  CE1       21.1770   82.3680    7.0420 C.ar  256  TYR256      0.0417
     24  CE2       22.5990   81.3760    8.7020 C.ar  256  TYR256      0.0417
     25  CZ        22.4400   81.9940    7.4790 C.ar  256  TYR256      0.1957
     26  OH        23.5520   82.2480    6.7080 O.3   256  TYR256     -0.2866
     27  N         14.1320   81.8860   13.6510 N.3   258  MET258     -0.1245
     28  CA        12.8990   81.2540   13.2170 C.3   258  MET258      0.1570
     29  C         11.6960   81.8190   13.9580 C.2   258  MET258      0.2261
     30  O         11.7920   82.2290   15.1140 O.2   258  MET258     -0.2867
     31  CB        12.9960   79.7410   13.4580 C.3   258  MET258      0.0387
     32  CG        14.0620   79.0380   12.6140 C.3   258  MET258      0.0595
     33  SD        14.7700   77.5450   13.3990 S.3   258  MET258     -0.1393
     34  CE        15.9240   78.2970   14.5260 C.3   258  MET258      0.0692
     35  N          8.3590   78.3310   13.0840 N.3   261  TRP261     -0.1241
     36  CA         9.0070   77.4160   12.1520 C.3   261  TRP261      0.1605
     37  C          8.8810   75.9720   12.6390 C.2   261  TRP261      0.2264
     38  O          9.4110   75.6220   13.7000 O.2   261  TRP261     -0.2867
     39  CB        10.4800   77.8050   12.0310 C.3   261  TRP261      0.0550
     40  CG        11.1630   77.3230   10.8000 C.ar  261  TRP261      0.0003
     41  CD1       11.0030   77.8010    9.5320 C.ar  261  TRP261      0.0946
     42  CD2       12.1610   76.3000   10.7230 C.ar  261  TRP261      0.0152
     43  NE1       11.8470   77.1430    8.6690 N.ar  261  TRP261     -0.2442
     44  CE2       12.5680   76.2150    9.3740 C.ar  261  TRP261      0.0810
     45  CE3       12.7540   75.4490   11.6650 C.ar  261  TRP261      0.0012
     46  CZ2       13.5440   75.3100    8.9410 C.ar  261  TRP261      0.0191
     47  CZ3       13.7230   74.5480   11.2360 C.ar  261  TRP261      0.0001
     48  CH2       14.1070   74.4870    9.8860 C.ar  261  TRP261      0.0015
     49  N         16.9370   72.8090   11.2630 N.3   270  SER270     -0.1202
     50  CA        17.8780   73.9090   11.2480 C.3   270  SER270      0.2020
     51  C         19.2740   73.4140   11.6150 C.2   270  SER270      0.2619
     52  O         19.5310   73.0460   12.7640 O.2   270  SER270     -0.2717
     53  CB        17.4380   74.9970   12.2320 C.3   270  SER270      0.2103
     54  OG        18.3940   76.0440   12.2910 O.3   270  SER270     -0.2182
     55  N         20.1620   73.3730   10.6250 N.am  271  SER271     -0.1937
     56  CA        21.5450   72.9730   10.8560 C.3   271  SER271      0.2055
     57  C         22.3790   74.0830   10.2420 C.2   271  SER271      0.2644
     58  O         21.8880   74.8370    9.3990 O.2   271  SER271     -0.2714
     59  CB        21.8700   71.6160   10.2120 C.3   271  SER271      0.2130
     60  OG        21.7060   71.6360    8.8100 O.3   271  SER271     -0.2179
     61  N         23.6310   74.1880   10.6640 N.am  272  SER272     -0.1935
     62  CA        24.5010   75.2520   10.1910 C.3   272  SER272      0.2055
     63  C         23.9120   76.6350   10.5090 C.2   272  SER272      0.2643
     64  O         24.1040   77.5900    9.7580 O.2   272  SER272     -0.2714
     65  CB        24.7560   75.1150    8.6920 C.3   272  SER272      0.2130
     66  OG        25.5610   73.9740    8.4380 O.3   272  SER272     -0.2179
     67  N         23.1650   76.7350   11.6070 N.am  273  ASN273     -0.1957
     68  CA        22.6320   78.0320   12.0170 C.3   273  ASN273      0.1819
     69  C         23.8290   78.6450   12.7380 C.2   273  ASN273      0.2621
     70  O         24.8260   77.9510   12.9530 O.2   273  ASN273     -0.2715
     71  CB        21.4580   77.8800   12.9960 C.3   273  ASN273      0.1195
     72  CG        20.4910   79.0670   12.9380 C.2   273  ASN273      0.2630
     73  OD1       20.9100   80.2090   12.7510 O.2   273  ASN273     -0.2716
     74  ND2       19.1960   78.7980   13.1080 N.am  273  ASN273     -0.0877
     75  N         23.7530   79.9230   13.1040 N.am  274  ARG274     -0.1977
     76  CA        24.8570   80.5740   13.8070 C.3   274  ARG274      0.1597
     77  C         24.3030   81.4120   14.9570 C.2   274  ARG274      0.2287
     78  O         23.1220   81.7580   14.9780 O.2   274  ARG274     -0.2864
     79  CB        25.6590   81.5070   12.8860 C.3   274  ARG274      0.0334
     80  CG        25.8110   81.0720   11.4440 C.3   274  ARG274      0.0492
     81  CD        26.7970   79.9340   11.2350 C.3   274  ARG274      0.2205
     82  NE        26.9260   79.6630    9.8030 N.pl3 274  ARG274     -0.0865
     83  CZ        27.3370   78.5100    9.2780 C.cat 274  ARG274      0.5346
     84  NH1       27.6700   77.4980   10.0610 N.pl3 274  ARG274      0.1354
     85  NH2       27.3870   78.3630    7.9590 N.pl3 274  ARG274      0.1354
@<TRIPOS>BOND
     1    26    25    1
     2    23    25   ar
     3    23    21   ar
     4     4     3    2
     5    25    24   ar
     6    21    20   ar
     7     5     6    1
     8     5     7    1
     9     5     2    1
    10    85    83    1
    11    66    65    1
    12     1     2    1
    13     3     2    1
    14    43    44   ar
    15    43    41   ar
    16    65    62    1
    17    24    22   ar
    18    60    59    1
    19    46    44   ar
    20    46    48   ar
    21    20    22   ar
    22    20    19    1
    23    83    82    2
    24    83    84    1
    25    44    42   ar
    26    58    57    2
    27    41    40   ar
    28    64    63    2
    29    82    81    1
    30    48    47   ar
    31    19    16    1
    32    62    63    1
    33    62    61    1
    34    59    56    1
    35    57    61   am
    36    57    56    1
    37    63    67   am
    38    55    56    1
    39    55    51   am
    40    42    40   ar
    41    42    45   ar
    42    40    39    1
    43    16    15    1
    44    16    17    1
    45    81    80    1
    46    47    45   ar
    47    50    49    1
    48    50    51    1
    49    50    53    1
    50    80    79    1
    51    67    68    1
    52    51    52    2
    53    17    18    2
    54    68    69    1
    55    68    71    1
    56    39    36    1
    57    36    37    1
    58    36    35    1
    59    53    54    1
    60    13    12    1
    61    32    33    1
    62    32    31    1
    63    37    38    2
    64    69    70    2
    65    69    75   am
    66    73    72    2
    67    79    76    1
    68    72    71    1
    69    72    74   am
    70    14    12    1
    71    75    76    1
    72    28    31    1
    73    28    27    1
    74    28    29    1
    75    33    34    1
    76    12     9    1
    77    76    77    1
    78    29    30    2
    79     9     8    1
    80     9    10    1
    81    77    78    2
    82    10    11    2
