@<TRIPOS>MOLECULE
tmp/2ga4A00.pdb
 102 98 0 0 0
SMALL
GASTEIGER

@<TRIPOS>ATOM
      1  N         -3.6180   66.8990   11.8570 N.3    76  LEU76      -0.1231
      2  CA        -4.1940   66.3550   13.0780 C.3    76  LEU76       0.1693
      3  C         -3.2860   66.4440   14.2900 C.2    76  LEU76       0.2592
      4  O         -3.4460   65.7230   15.2550 O.2    76  LEU76      -0.2718
      5  CB        -4.6420   64.9090   12.8420 C.3    76  LEU76       0.0284
      6  CG        -5.8900   64.7820   11.9680 C.3    76  LEU76       0.0019
      7  CD1       -6.2620   63.2760   11.8130 C.3    76  LEU76       0.0001
      8  CD2       -7.0530   65.5500   12.6890 C.3    76  LEU76       0.0001
      9  N         -2.3350   67.3530   14.2580 N.am   77  TYR77      -0.1962
     10  CA        -1.4870   67.5070   15.4140 C.3    77  TYR77       0.1771
     11  C         -2.1760   68.3010   16.4770 C.2    77  TYR77       0.2619
     12  O         -2.8910   69.2490   16.1750 O.2    77  TYR77      -0.2715
     13  CB        -0.2200   68.2310   15.0440 C.3    77  TYR77       0.0574
     14  CG         0.8980   67.2760   14.9480 C.ar   77  TYR77      -0.0198
     15  CD1        0.9080   66.2970   13.9580 C.ar   77  TYR77      -0.0009
     16  CD2        1.9540   67.3160   15.8910 C.ar   77  TYR77      -0.0009
     17  CE1        1.9230   65.3680   13.8960 C.ar   77  TYR77       0.0417
     18  CE2        2.9900   66.4040   15.8250 C.ar   77  TYR77       0.0417
     19  CZ         2.9660   65.4350   14.8270 C.ar   77  TYR77       0.1957
     20  OH         4.0020   64.5540   14.7400 O.3    77  TYR77      -0.2866
     21  N         -1.9770   67.9140   17.7320 N.am   78  VAL78      -0.1977
     22  CA        -2.5390   68.6900   18.8340 C.3    78  VAL78       0.1596
     23  C         -1.4930   69.7800   19.0160 C.2    78  VAL78       0.2287
     24  O         -0.3610   69.5090   19.4350 O.2    78  VAL78      -0.2864
     25  CB        -2.6390   67.8700   20.1410 C.3    78  VAL78       0.0276
     26  CG1       -2.9610   68.7980   21.3050 C.3    78  VAL78       0.0022
     27  CG2       -3.7470   66.7840   19.9970 C.3    78  VAL78       0.0022
     28  N          2.1080   74.5530   21.8740 N.3    92  PHE92      -0.1241
     29  CA         3.4470   74.0030   21.7460 C.3    92  PHE92       0.1605
     30  C          4.3180   74.9330   20.9230 C.2    92  PHE92       0.2264
     31  O          3.8220   75.6870   20.0900 O.2    92  PHE92      -0.2867
     32  CB         3.3930   72.6180   21.1050 C.3    92  PHE92       0.0534
     33  CG         2.9130   71.5690   22.0270 C.ar   92  PHE92      -0.0203
     34  CD1        3.6570   71.2400   23.1520 C.ar   92  PHE92      -0.0042
     35  CD2        1.6880   70.9380   21.8160 C.ar   92  PHE92      -0.0042
     36  CE1        3.1960   70.3060   24.0550 C.ar   92  PHE92      -0.0003
     37  CE2        1.2080   70.0000   22.7350 C.ar   92  PHE92      -0.0003
     38  CZ         1.9560   69.6850   23.8440 C.ar   92  PHE92      -0.0000
     39  N          5.8100   69.8600   20.5080 N.3   112  SER112     -0.1202
     40  CA         4.7990   68.7920   20.4860 C.3   112  SER112      0.2020
     41  C          5.2630   67.3600   20.2280 C.2   112  SER112      0.2619
     42  O          4.4450   66.4330   20.2980 O.2   112  SER112     -0.2717
     43  CB         3.7750   69.0960   19.3920 C.3   112  SER112      0.2103
     44  OG         4.4100   68.8590   18.1490 O.3   112  SER112     -0.2182
     45  N          6.5380   67.1690   19.9170 N.am  113  SER113     -0.1937
     46  CA         6.9940   65.8380   19.5460 C.3   113  SER113      0.2055
     47  C          6.8950   64.7990   20.6440 C.2   113  SER113      0.2643
     48  O          6.9570   65.1080   21.8450 O.2   113  SER113     -0.2714
     49  CB         8.4420   65.8890   19.0530 C.3   113  SER113      0.2130
     50  OG         9.3410   66.0500   20.1410 O.3   113  SER113     -0.2179
     51  N          6.7380   63.5520   20.2110 N.am  114  TYR114     -0.1973
     52  CA         6.7240   62.4840   21.1630 C.3   114  TYR114      0.1639
     53  C          8.0900   62.3430   21.8040 C.2   114  TYR114      0.2290
     54  O          8.1760   61.9530   22.9530 O.2   114  TYR114     -0.2864
     55  CB         6.3770   61.1730   20.4880 C.3   114  TYR114      0.0560
     56  CG         4.8940   61.0820   20.1510 C.ar  114  TYR114     -0.0198
     57  CD1        3.9400   61.5290   21.0700 C.ar  114  TYR114     -0.0009
     58  CD2        4.4520   60.4650   18.9770 C.ar  114  TYR114     -0.0009
     59  CE1        2.5940   61.3610   20.8330 C.ar  114  TYR114      0.0417
     60  CE2        3.0710   60.2800   18.7250 C.ar  114  TYR114      0.0417
     61  CZ         2.1590   60.7370   19.6660 C.ar  114  TYR114      0.1957
     62  OH         0.7980   60.5860   19.4810 O.3   114  TYR114     -0.2866
     63  N          7.8200   64.9180   24.4760 N.3   117  LEU117     -0.1245
     64  CA         6.8120   64.6210   25.4620 C.3   117  LEU117      0.1561
     65  C          7.1270   63.4450   26.3110 C.2   117  LEU117      0.2260
     66  O          6.9080   63.4940   27.5130 O.2   117  LEU117     -0.2867
     67  CB         5.4220   64.4480   24.8250 C.3   117  LEU117      0.0270
     68  CG         4.8550   65.7490   24.2580 C.3   117  LEU117      0.0019
     69  CD1        3.5100   65.4170   23.5740 C.3   117  LEU117      0.0001
     70  CD2        4.6180   66.7740   25.3350 C.3   117  LEU117      0.0001
     71  N         -3.4770   62.9260   23.3560 N.3   162  VAL162     -0.1245
     72  CA        -3.1560   62.8900   21.9370 C.3   162  VAL162      0.1561
     73  C         -3.4610   61.4930   21.4220 C.2   162  VAL162      0.2260
     74  O         -3.9740   61.3120   20.3100 O.2   162  VAL162     -0.2867
     75  CB        -1.6770   63.2390   21.7030 C.3   162  VAL162      0.0252
     76  CG1       -1.2310   62.8610   20.3030 C.3   162  VAL162      0.0019
     77  CG2       -1.5300   64.7310   21.8760 C.3   162  VAL162      0.0019
     78  N         -6.2100   62.5400   18.5650 N.3   166  ALA166     -0.1231
     79  CA        -5.5600   62.5560   17.2600 C.3   166  ALA166      0.1694
     80  C         -5.1580   61.1780   16.7770 C.2   166  ALA166      0.2591
     81  O         -5.4030   60.8620   15.6310 O.2   166  ALA166     -0.2718
     82  CB        -4.3060   63.4600   17.2880 C.3   166  ALA166      0.0304
     83  N         -4.5290   60.3520   17.6190 N.am  167  GLU167     -0.1979
     84  CA        -4.0720   59.0730   17.0640 C.3   167  GLU167      0.1602
     85  C         -5.2520   58.1690   16.7420 C.2   167  GLU167      0.2287
     86  O         -5.2340   57.4390   15.7640 O.2   167  GLU167     -0.2864
     87  CB        -3.0720   58.3720   17.9960 C.3   167  GLU167      0.0415
     88  CG        -1.8020   59.1820   18.2290 C.3   167  GLU167      0.1163
     89  CD        -0.9110   59.3690   16.9840 C.2   167  GLU167      0.3649
     90  OE1       -1.3010   59.0670   15.8160 O.co2 167  GLU167     -0.2457
     91  OE2        0.2180   59.8790   17.1690 O.co2 167  GLU167     -0.2457
     92  N         -6.7470   59.1760   13.4710 N.3   170  ARG170     -0.1245
     93  CA        -5.9630   58.6360   12.3620 C.3   170  ARG170      0.1563
     94  C         -6.1060   57.1430   12.1940 C.2   170  ARG170      0.2260
     95  O         -6.2380   56.6350   11.0830 O.2   170  ARG170     -0.2867
     96  CB        -4.4990   58.8820   12.6140 C.3   170  ARG170      0.0307
     97  CG        -4.1240   60.3290   12.5940 C.3   170  ARG170      0.0489
     98  CD        -2.6330   60.4450   13.0160 C.3   170  ARG170      0.2205
     99  NE        -2.2120   61.8270   12.9810 N.pl3 170  ARG170     -0.0865
    100  CZ        -1.5770   62.4390   13.9800 C.cat 170  ARG170      0.5346
    101  NH1       -1.3170   61.7780   15.0860 N.pl3 170  ARG170      0.1354
    102  NH2       -1.1590   63.6890   13.8490 N.pl3 170  ARG170      0.1354
@<TRIPOS>BOND
     1    95    94    2
     2     7     6    1
     3     1     2    1
     4     6     8    1
     5     6     5    1
     6    94    93    1
     7    93    96    1
     8    93    92    1
     9    97    96    1
    10    97    98    1
    11     5     2    1
    12    99    98    1
    13    99   100    2
    14     2     3    1
    15   102   100    1
    16    17    15   ar
    17    17    19   ar
    18    15    14   ar
    19   100   101    1
    20     9     3   am
    21     9    10    1
    22     3     4    2
    23    20    19    1
    24    19    18   ar
    25    14    13    1
    26    14    16   ar
    27    13    10    1
    28    10    11    1
    29    81    80    2
    30    86    85    2
    31    90    89   ar
    32    18    16   ar
    33    12    11    2
    34    11    21   am
    35    85    84    1
    36    80    79    1
    37    80    83   am
    38    89    91   ar
    39    89    88    1
    40    84    83    1
    41    84    87    1
    42    79    82    1
    43    79    78    1
    44    21    22    1
    45    87    88    1
    46    44    43    1
    47    60    58   ar
    48    60    61   ar
    49    22    23    1
    50    22    25    1
    51    58    56   ar
    52    23    24    2
    53    49    46    1
    54    49    50    1
    55    43    40    1
    56    62    61    1
    57    46    45    1
    58    46    47    1
    59    61    59   ar
    60    45    41   am
    61    27    25    1
    62    31    30    2
    63    25    26    1
    64    56    55    1
    65    56    57   ar
    66    51    47   am
    67    51    52    1
    68    41    42    2
    69    41    40    1
    70    76    75    1
    71    74    73    2
    72    40    39    1
    73    55    52    1
    74    47    48    2
    75    59    57   ar
    76    30    29    1
    77    32    29    1
    78    32    33    1
    79    52    53    1
    80    73    72    1
    81    75    77    1
    82    75    72    1
    83    29    28    1
    84    53    54    2
    85    35    33   ar
    86    35    37   ar
    87    72    71    1
    88    33    34   ar
    89    37    38   ar
    90    34    36   ar
    91    69    68    1
    92    38    36   ar
    93    68    67    1
    94    68    70    1
    95    63    64    1
    96    67    64    1
    97    64    65    1
    98    65    66    2
