@<TRIPOS>MOLECULE
tmp/2ga9B01.pdb
 96 91 0 0 0
SMALL
GASTEIGER

@<TRIPOS>ATOM
      1  N        -11.0810   -8.7340   38.3730 N.3    36  PHE36      -0.1227
      2  CA        -9.8680   -8.0500   38.8120 C.3    36  PHE36       0.1736
      3  C        -10.1360   -7.4160   40.1900 C.2    36  PHE36       0.2595
      4  O        -11.1450   -6.7350   40.3740 O.2    36  PHE36      -0.2718
      5  CB        -9.5220   -6.9530   37.7850 C.3    36  PHE36       0.0547
      6  CG        -8.0960   -6.4530   37.8550 C.ar   36  PHE36      -0.0202
      7  CD1       -7.0320   -7.2710   37.4860 C.ar   36  PHE36      -0.0042
      8  CD2       -7.8220   -5.1480   38.2370 C.ar   36  PHE36      -0.0042
      9  CE1       -5.7140   -6.7970   37.5050 C.ar   36  PHE36      -0.0003
     10  CE2       -6.5100   -4.6710   38.2570 C.ar   36  PHE36      -0.0003
     11  CZ        -5.4600   -5.5000   37.8840 C.ar   36  PHE36      -0.0000
     12  N         -9.2490   -7.6570   41.1530 N.am   37  ASN37      -0.1974
     13  CA        -9.3700   -7.0700   42.4890 C.3    37  ASN37       0.1688
     14  C         -8.9680   -5.5770   42.4660 C.2    37  ASN37       0.2292
     15  O         -7.7870   -5.2310   42.3710 O.2    37  ASN37      -0.2864
     16  CB        -8.4760   -7.8300   43.4720 C.3    37  ASN37       0.1181
     17  CG        -8.6240   -7.3340   44.8900 C.2    37  ASN37       0.2629
     18  OD1       -8.4080   -6.1590   45.1740 O.2    37  ASN37      -0.2716
     19  ND2       -8.9980   -8.2260   45.7900 N.am   37  ASN37      -0.0877
     20  N         -6.3060   -4.2140   45.5000 N.3    40  ILE40      -0.1231
     21  CA        -4.8700   -4.3920   45.3850 C.3    40  ILE40       0.1692
     22  C         -4.3240   -3.3270   44.4390 C.2    40  ILE40       0.2592
     23  O         -3.2160   -2.8230   44.6290 O.2    40  ILE40      -0.2718
     24  CB        -4.5160   -5.7750   44.8150 C.3    40  ILE40       0.0266
     25  CG1       -5.1900   -6.8770   45.6360 C.3    40  ILE40       0.0019
     26  CG2       -3.0030   -5.9470   44.7950 C.3    40  ILE40       0.0020
     27  CD1       -4.6970   -6.9800   47.0550 C.3    40  ILE40       0.0001
     28  N         -5.1120   -2.9860   43.4210 N.am   41  PHE41      -0.1976
     29  CA        -4.7030   -1.9830   42.4420 C.3    41  PHE41       0.1639
     30  C         -4.5350   -0.6170   43.1080 C.2    41  PHE41       0.2290
     31  O         -3.5230    0.0550   42.8960 O.2    41  PHE41      -0.2864
     32  CB        -5.7250   -1.9000   41.3010 C.3    41  PHE41       0.0560
     33  CG        -5.2990   -1.0130   40.1660 C.ar   41  PHE41      -0.0200
     34  CD1       -4.1510   -1.2990   39.4310 C.ar   41  PHE41      -0.0042
     35  CD2       -6.0360    0.1250   39.8420 C.ar   41  PHE41      -0.0042
     36  CE1       -3.7430   -0.4560   38.3860 C.ar   41  PHE41      -0.0003
     37  CE2       -5.6420    0.9710   38.8060 C.ar   41  PHE41      -0.0003
     38  CZ        -4.4930    0.6830   38.0760 C.ar   41  PHE41      -0.0000
     39  N         -1.5010   -0.7460   44.8850 N.3    44  LEU44      -0.1245
     40  CA        -0.3510   -0.6510   43.9930 C.3    44  LEU44       0.1561
     41  C         -0.0790    0.7760   43.5600 C.2    44  LEU44       0.2260
     42  O          1.0520    1.2420   43.6440 O.2    44  LEU44      -0.2867
     43  CB        -0.5400   -1.5240   42.7530 C.3    44  LEU44       0.0270
     44  CG        -0.4090   -3.0200   43.0040 C.3    44  LEU44       0.0019
     45  CD1       -0.5560   -3.8060   41.7090 C.3    44  LEU44       0.0001
     46  CD2        0.9360   -3.2580   43.6380 C.3    44  LEU44       0.0001
     47  N          1.3470    2.8650   46.4370 N.3    47  LYS47      -0.1245
     48  CA         2.7310    2.4990   46.6920 C.3    47  LYS47       0.1561
     49  C          3.6280    3.1710   45.6690 C.2    47  LYS47       0.2260
     50  O          4.7070    3.6810   45.9890 O.2    47  LYS47      -0.2867
     51  CB         2.8900    0.9790   46.6240 C.3    47  LYS47       0.0271
     52  CG         4.2450    0.4770   47.0860 C.3    47  LYS47       0.0035
     53  CD         4.2890   -1.0440   47.0960 C.3    47  LYS47       0.0206
     54  CE         5.6320   -1.5530   47.5900 C.3    47  LYS47       0.1093
     55  NZ         5.7120   -3.0340   47.4860 N.3    47  LYS47      -0.1314
     56  N          0.4910   -4.6610   36.2690 N.3    98  THR98      -0.1203
     57  CA         1.3970   -5.3100   37.2080 C.3    98  THR98       0.1994
     58  C          2.7530   -5.6280   36.5930 C.2    98  THR98       0.2617
     59  O          3.7980   -5.4010   37.2110 O.2    98  THR98      -0.2717
     60  CB         0.8150   -6.6180   37.7310 C.3    98  THR98       0.1784
     61  OG1       -0.2910   -6.3390   38.5970 O.3    98  THR98      -0.2211
     62  CG2        1.8780   -7.3780   38.4870 C.3    98  THR98       0.0376
     63  N          2.7380   -6.1660   35.3780 N.am   99  ASP99      -0.1973
     64  CA         3.9800   -6.5080   34.7060 C.3    99  ASP99       0.1709
     65  C          4.7670   -5.2810   34.2640 C.2    99  ASP99       0.2293
     66  O          5.9960   -5.3130   34.2350 O.2    99  ASP99      -0.2864
     67  CB         3.7080   -7.3940   33.4830 C.3    99  ASP99       0.1436
     68  CG         3.2980   -8.8090   33.8590 C.2    99  ASP99       0.3671
     69  OD1        3.9620   -9.4000   34.7380 O.co2  99  ASP99      -0.2456
     70  OD2        2.3240   -9.3340   33.2680 O.co2  99  ASP99      -0.2456
     71  N          3.7530   -2.1970   37.8060 N.3   102  GLY102     -0.1210
     72  CA         3.6590   -2.8710   39.0890 C.3   102  GLY102      0.1956
     73  C          5.0170   -3.3440   39.5660 C.2   102  GLY102      0.2611
     74  O          5.3900   -3.1240   40.7130 O.2   102  GLY102     -0.2717
     75  N          5.7550   -3.9930   38.6690 N.am  103  VAL103     -0.1979
     76  CA         7.0890   -4.5150   38.9610 C.3   103  VAL103      0.1595
     77  C          8.0130   -3.4490   39.5440 C.2   103  VAL103      0.2287
     78  O          8.8980   -3.7460   40.3390 O.2   103  VAL103     -0.2864
     79  CB         7.7490   -5.0820   37.6750 C.3   103  VAL103      0.0276
     80  CG1        9.2180   -5.3910   37.9210 C.3   103  VAL103      0.0022
     81  CG2        7.0220   -6.3450   37.2280 C.3   103  VAL103      0.0022
     82  N          7.9060   -1.5760   41.8980 N.3   105  THR105     -0.1203
     83  CA         7.9680   -1.3690   43.3470 C.3   105  THR105      0.1994
     84  C          8.6350   -2.4160   44.2410 C.2   105  THR105      0.2617
     85  O          8.1790   -2.6280   45.3630 O.2   105  THR105     -0.2717
     86  CB         6.5510   -1.0790   43.9190 C.3   105  THR105      0.1784
     87  OG1        5.7260   -2.2500   43.7930 O.3   105  THR105     -0.2211
     88  CG2        5.9340    0.0750   43.1820 C.3   105  THR105      0.0376
     89  N          9.7180   -3.0350   43.7690 N.am  106  ILE106     -0.1979
     90  CA        10.4430   -4.0320   44.5610 C.3   106  ILE106      0.1595
     91  C         11.8700   -4.2510   44.0830 C.2   106  ILE106      0.2287
     92  O         12.1070   -4.4140   42.8900 O.2   106  ILE106     -0.2864
     93  CB         9.7210   -5.3990   44.5610 C.3   106  ILE106      0.0276
     94  CG1        9.2210   -5.7270   43.1550 C.3   106  ILE106      0.0022
     95  CG2        8.5820   -5.3920   45.5710 C.3   106  ILE106      0.0022
     96  CD1        8.1360   -6.7830   43.1220 C.3   106  ILE106      0.0001
@<TRIPOS>BOND
     1    70    68   ar
     2    67    68    1
     3    67    64    1
     4    68    69   ar
     5    66    65    2
     6    65    64    1
     7    64    63    1
     8    63    58   am
     9    56    57    1
    10    58    57    1
    11    58    59    2
    12    57    60    1
    13    81    79    1
    14     7     9   ar
    15     7     6   ar
    16     9    11   ar
    17    79    80    1
    18    79    76    1
    19    60    62    1
    20    60    61    1
    21     5     6    1
    22     5     2    1
    23    71    72    1
    24     6     8   ar
    25    11    10   ar
    26    38    36   ar
    27    38    37   ar
    28     8    10   ar
    29     1     2    1
    30    36    34   ar
    31    75    76    1
    32    75    73   am
    33    37    35   ar
    34     2     3    1
    35    76    77    1
    36    72    73    1
    37    34    33   ar
    38    77    78    2
    39    73    74    2
    40    35    33   ar
    41    33    32    1
    42     3     4    2
    43     3    12   am
    44    12    13    1
    45    32    29    1
    46    45    44    1
    47    82    83    1
    48    15    14    2
    49    29    30    1
    50    29    28    1
    51    14    13    1
    52    13    16    1
    53    43    44    1
    54    43    40    1
    55    92    91    2
    56    31    30    2
    57    44    46    1
    58    96    94    1
    59    94    93    1
    60    88    86    1
    61    83    86    1
    62    83    84    1
    63    28    22   am
    64    16    17    1
    65    41    42    2
    66    41    40    1
    67    89    84   am
    68    89    90    1
    69    87    86    1
    70    40    39    1
    71    91    90    1
    72    84    85    2
    73    22    23    2
    74    22    21    1
    75    90    93    1
    76    93    95    1
    77    26    24    1
    78    24    21    1
    79    24    25    1
    80    17    18    2
    81    17    19   am
    82    21    20    1
    83    25    27    1
    84    49    50    2
    85    49    48    1
    86    47    48    1
    87    51    48    1
    88    51    52    1
    89    52    53    1
    90    53    54    1
    91    55    54    1
