@<TRIPOS>MOLECULE
tmp/2gamA00.pdb
 170 163 0 0 0
SMALL
GASTEIGER

@<TRIPOS>ATOM
      1  N         68.5380   -1.3300   49.8930 N.3   128  TYR128     -0.1241
      2  CA        67.7350   -2.4390   50.3890 C.3   128  TYR128      0.1605
      3  C         68.1340   -3.8010   49.8390 C.2   128  TYR128      0.2264
      4  O         68.2600   -3.9910   48.6220 O.2   128  TYR128     -0.2867
      5  CB        66.2560   -2.1980   50.0890 C.3   128  TYR128      0.0534
      6  CG        65.3280   -3.2940   50.5550 C.ar  128  TYR128     -0.0201
      7  CD1       65.0510   -3.4790   51.9120 C.ar  128  TYR128     -0.0009
      8  CD2       64.7150   -4.1410   49.6380 C.ar  128  TYR128     -0.0009
      9  CE1       64.1760   -4.4850   52.3390 C.ar  128  TYR128      0.0417
     10  CE2       63.8420   -5.1510   50.0510 C.ar  128  TYR128      0.0417
     11  CZ        63.5770   -5.3170   51.3980 C.ar  128  TYR128      0.1957
     12  OH        62.7210   -6.3220   51.7930 O.3   128  TYR128     -0.2866
     13  N         68.7240  -17.0180   64.2150 N.3   184  GLU184     -0.1245
     14  CA        68.0390  -17.9210   63.3110 C.3   184  GLU184      0.1567
     15  C         69.0900  -18.5610   62.4110 C.2   184  GLU184      0.2260
     16  O         70.0620  -17.9120   62.0070 O.2   184  GLU184     -0.2867
     17  CB        67.0410  -17.1340   62.4770 C.3   184  GLU184      0.0388
     18  CG        65.9700  -17.9550   61.7940 C.3   184  GLU184      0.1160
     19  CD        65.0250  -17.0780   60.9780 C.2   184  GLU184      0.3649
     20  OE1       64.8140  -15.9130   61.3880 O.co2 184  GLU184     -0.2457
     21  OE2       64.4900  -17.5460   59.9470 O.co2 184  GLU184     -0.2457
     22  N         68.5980  -22.0050   59.7670 N.3   186  GLU186     -0.1245
     23  CA        67.9180  -23.2000   59.3240 C.3   186  GLU186      0.1567
     24  C         68.3600  -23.6680   57.9510 C.2   186  GLU186      0.2260
     25  O         69.0580  -22.9710   57.2110 O.2   186  GLU186     -0.2867
     26  CB        66.4110  -22.9640   59.2730 C.3   186  GLU186      0.0388
     27  CG        65.7820  -22.4590   60.5510 C.3   186  GLU186      0.1160
     28  CD        64.2680  -22.3710   60.4310 C.2   186  GLU186      0.3649
     29  OE1       63.5710  -23.2830   60.9330 O.co2 186  GLU186     -0.2457
     30  OE2       63.7740  -21.3970   59.8130 O.co2 186  GLU186     -0.2457
     31  N         63.2570  -21.8920   47.5970 N.3   191  ASN191     -0.1225
     32  CA        62.8430  -20.6160   47.0180 C.3   191  ASN191      0.1785
     33  C         63.7700  -19.4480   47.3430 C.2   191  ASN191      0.2597
     34  O         63.5690  -18.3430   46.8380 O.2   191  ASN191     -0.2718
     35  CB        61.4120  -20.2690   47.4490 C.3   191  ASN191      0.1169
     36  CG        61.3530  -19.6090   48.8170 C.2   191  ASN191      0.2627
     37  OD1       61.9230  -20.1080   49.7880 O.2   191  ASN191     -0.2716
     38  ND2       60.6520  -18.4810   48.8990 N.am  191  ASN191     -0.0877
     39  N         64.7780  -19.6780   48.1800 N.am  192  LYS192     -0.1980
     40  CA        65.7110  -18.6060   48.5130 C.3   192  LYS192      0.1596
     41  C         67.1170  -18.8970   48.0360 C.2   192  LYS192      0.2287
     42  O         68.0550  -18.1930   48.4090 O.2   192  LYS192     -0.2864
     43  CB        65.7410  -18.3340   50.0160 C.3   192  LYS192      0.0298
     44  CG        64.4580  -17.7540   50.5610 C.3   192  LYS192      0.0038
     45  CD        64.6050  -17.4170   52.0190 C.3   192  LYS192      0.0206
     46  CE        63.3130  -16.8790   52.5910 C.3   192  LYS192      0.1093
     47  NZ        63.5190  -16.4770   54.0040 N.3   192  LYS192     -0.1314
     48  N         68.7750  -16.3790   45.5120 N.3   195  ARG195     -0.1245
     49  CA        69.3970  -15.1680   46.0450 C.3   195  ARG195      0.1563
     50  C         70.9090  -15.1460   45.9340 C.2   195  ARG195      0.2260
     51  O         71.5090  -14.0770   45.8810 O.2   195  ARG195     -0.2867
     52  CB        69.0340  -14.9630   47.5130 C.3   195  ARG195      0.0307
     53  CG        67.5710  -14.7460   47.7730 C.3   195  ARG195      0.0489
     54  CD        67.3700  -14.3200   49.2070 C.3   195  ARG195      0.2205
     55  NE        65.9620  -14.1390   49.5170 N.pl3 195  ARG195     -0.0865
     56  CZ        65.4860  -13.8850   50.7310 C.cat 195  ARG195      0.5346
     57  NH1       66.3110  -13.7790   51.7670 N.pl3 195  ARG195      0.1354
     58  NH2       64.1780  -13.7420   50.9030 N.pl3 195  ARG195      0.1354
     59  N         69.8820  -20.3760   55.9950 N.3   225  SER225     -0.1202
     60  CA        68.8910  -19.3090   55.9180 C.3   225  SER225      0.2020
     61  C         68.5870  -18.7470   57.3120 C.2   225  SER225      0.2619
     62  O         68.4350  -19.5010   58.2720 O.2   225  SER225     -0.2717
     63  CB        67.6140  -19.8830   55.2920 C.3   225  SER225      0.2103
     64  OG        66.5990  -18.9170   55.1470 O.3   225  SER225     -0.2182
     65  N         68.4940  -17.4260   57.4190 N.am  226  GLY226     -0.1942
     66  CA        68.2030  -16.7960   58.6980 C.3   226  GLY226      0.2014
     67  C         67.6440  -15.3880   58.5500 C.2   226  GLY226      0.2639
     68  O         66.8000  -15.1310   57.6810 O.2   226  GLY226     -0.2714
     69  N         68.1140  -14.4710   59.3920 N.am  227  SER227     -0.1949
     70  CA        67.6450  -13.0840   59.3500 C.3   227  SER227      0.1924
     71  C         68.8230  -12.1430   59.5470 C.2   227  SER227      0.2314
     72  O         69.9310  -12.5960   59.8010 O.2   227  SER227     -0.2863
     73  CB        66.6090  -12.8260   60.4500 C.3   227  SER227      0.2116
     74  OG        67.1970  -12.1160   61.5220 O.3   227  SER227     -0.2180
     75  N         71.6660  -11.2630   46.8070 N.3   257  TYR257     -0.1227
     76  CA        70.4600  -10.5970   47.2800 C.3   257  TYR257      0.1736
     77  C         70.1700  -10.9420   48.7480 C.2   257  TYR257      0.2596
     78  O         69.9600  -12.1070   49.0990 O.2   257  TYR257     -0.2718
     79  CB        69.2670  -11.0180   46.4320 C.3   257  TYR257      0.0548
     80  CG        68.0080  -10.2350   46.7290 C.ar  257  TYR257     -0.0200
     81  CD1       67.7010   -9.0670   46.0160 C.ar  257  TYR257     -0.0009
     82  CD2       67.1240  -10.6530   47.7290 C.ar  257  TYR257     -0.0009
     83  CE1       66.5440   -8.3350   46.2930 C.ar  257  TYR257      0.0417
     84  CE2       65.9660   -9.9270   48.0140 C.ar  257  TYR257      0.0417
     85  CZ        65.6800   -8.7700   47.2930 C.ar  257  TYR257      0.1957
     86  OH        64.5410   -8.0470   47.5860 O.3   257  TYR257     -0.2866
     87  N         70.1400   -9.9220   49.5980 N.am  258  SER258     -0.1952
     88  CA        69.8800  -10.1080   51.0220 C.3   258  SER258      0.1924
     89  C         70.9530  -10.9580   51.6610 C.2   258  SER258      0.2314
     90  O         70.6560  -11.8360   52.4680 O.2   258  SER258     -0.2863
     91  CB        68.5210  -10.7720   51.2610 C.3   258  SER258      0.2116
     92  OG        67.4630   -9.9610   50.7940 O.3   258  SER258     -0.2180
     93  N         70.6280  -12.4020   55.0910 N.3   261  GLU261     -0.1245
     94  CA        69.7370  -13.4590   55.5530 C.3   261  GLU261      0.1567
     95  C         70.2410  -14.8850   55.2880 C.2   261  GLU261      0.2260
     96  O         69.4480  -15.8280   55.1690 O.2   261  GLU261     -0.2867
     97  CB        68.3260  -13.2870   54.9820 C.3   261  GLU261      0.0388
     98  CG        67.6550  -11.9810   55.3730 C.3   261  GLU261      0.1160
     99  CD        66.1420  -12.0420   55.2550 C.2   261  GLU261      0.3649
    100  OE1       65.6310  -12.6800   54.3000 O.co2 261  GLU261     -0.2457
    101  OE2       65.4600  -11.4450   56.1200 O.co2 261  GLU261     -0.2457
    102  N         63.0350  -18.8140   63.6520 N.3   287  ASP287     -0.1239
    103  CA        62.9160  -17.4560   64.1650 C.3   287  ASP287      0.1674
    104  C         62.2440  -17.4390   65.5560 C.2   287  ASP287      0.2266
    105  O         62.5860  -16.6000   66.4000 O.2   287  ASP287     -0.2867
    106  CB        62.1730  -16.5720   63.1520 C.3   287  ASP287      0.1410
    107  CG        60.8790  -17.1980   62.6490 C.2   287  ASP287      0.3668
    108  OD1       60.2750  -16.6220   61.7140 O.co2 287  ASP287     -0.2456
    109  OD2       60.4560  -18.2530   63.1810 O.co2 287  ASP287     -0.2456
    110  N         59.0170  -11.4330   65.3080 N.3   295  VAL295     -0.1245
    111  CA        58.4870  -10.7920   64.1110 C.3   295  VAL295      0.1561
    112  C         57.3820  -11.6490   63.5240 C.2   295  VAL295      0.2260
    113  O         57.5650  -12.8450   63.3520 O.2   295  VAL295     -0.2867
    114  CB        59.5880  -10.6320   63.0560 C.3   295  VAL295      0.0252
    115  CG1       58.9960  -10.0970   61.7610 C.3   295  VAL295      0.0019
    116  CG2       60.7000   -9.7160   63.5890 C.3   295  VAL295      0.0019
    117  N         54.7960  -12.5640   60.3980 N.3   297  TRP297     -0.1241
    118  CA        54.6780  -12.4120   58.9730 C.3   297  TRP297      0.1605
    119  C         53.2260  -12.6540   58.6300 C.2   297  TRP297      0.2264
    120  O         52.5980  -13.5970   59.1200 O.2   297  TRP297     -0.2867
    121  CB        55.5960  -13.3860   58.2400 C.3   297  TRP297      0.0550
    122  CG        57.0320  -13.1180   58.5330 C.ar  297  TRP297      0.0003
    123  CD1       57.7180  -13.4650   59.6620 C.ar  297  TRP297      0.0946
    124  CD2       57.9510  -12.3760   57.7170 C.ar  297  TRP297      0.0152
    125  NE1       59.0040  -12.9770   59.6080 N.ar  297  TRP297     -0.2442
    126  CE2       59.1720  -12.2960   58.4350 C.ar  297  TRP297      0.0810
    127  CE3       57.8530  -11.7470   56.4640 C.ar  297  TRP297      0.0012
    128  CZ2       60.2990  -11.6320   57.9230 C.ar  297  TRP297      0.0191
    129  CZ3       58.9740  -11.0860   55.9600 C.ar  297  TRP297      0.0001
    130  CH2       60.1770  -11.0260   56.6970 C.ar  297  TRP297      0.0015
    131  N         51.6760  -13.9560   56.2060 N.3   299  TYR299     -0.1227
    132  CA        51.2590  -15.2880   55.7650 C.3   299  TYR299      0.1736
    133  C         51.3750  -16.4020   56.7970 C.2   299  TYR299      0.2595
    134  O         51.1520  -17.5580   56.4640 O.2   299  TYR299     -0.2718
    135  CB        52.0030  -15.7050   54.4950 C.3   299  TYR299      0.0548
    136  CG        53.4770  -15.4230   54.5230 C.ar  299  TYR299     -0.0200
    137  CD1       54.3490  -16.2050   55.2820 C.ar  299  TYR299     -0.0009
    138  CD2       54.0070  -14.3520   53.7990 C.ar  299  TYR299     -0.0009
    139  CE1       55.7200  -15.9170   55.3170 C.ar  299  TYR299      0.0417
    140  CE2       55.3680  -14.0590   53.8300 C.ar  299  TYR299      0.0417
    141  CZ        56.2160  -14.8430   54.5880 C.ar  299  TYR299      0.1957
    142  OH        57.5540  -14.5350   54.6280 O.3   299  TYR299     -0.2866
    143  N         51.7180  -16.0710   58.0390 N.am  300  PHE300     -0.1976
    144  CA        51.8140  -17.0880   59.0830 C.3   300  PHE300      0.1639
    145  C         50.7870  -16.8810   60.1920 C.2   300  PHE300      0.2290
    146  O         50.3770  -17.8400   60.8450 O.2   300  PHE300     -0.2864
    147  CB        53.2110  -17.1120   59.7030 C.3   300  PHE300      0.0560
    148  CG        54.2290  -17.8170   58.8670 C.ar  300  PHE300     -0.0200
    149  CD1       53.9100  -19.0110   58.2270 C.ar  300  PHE300     -0.0042
    150  CD2       55.5190  -17.2980   58.7280 C.ar  300  PHE300     -0.0042
    151  CE1       54.8610  -19.6750   57.4590 C.ar  300  PHE300     -0.0003
    152  CE2       56.4810  -17.9640   57.9570 C.ar  300  PHE300     -0.0003
    153  CZ        56.1450  -19.1530   57.3240 C.ar  300  PHE300     -0.0000
    154  N         55.2750   -4.7840   53.7390 N.3   319  ARG319     -0.1231
    155  CA        56.0520   -5.8370   53.1040 C.3   319  ARG319      0.1694
    156  C         55.8810   -7.1920   53.7930 C.2   319  ARG319      0.2592
    157  O         56.8380   -7.9450   53.9810 O.2   319  ARG319     -0.2718
    158  CB        57.5270   -5.4270   53.0440 C.3   319  ARG319      0.0321
    159  CG        57.8040   -4.4270   51.9260 C.3   319  ARG319      0.0489
    160  CD        59.2720   -4.0550   51.8090 C.3   319  ARG319      0.2205
    161  NE        59.5420   -2.7090   52.3100 N.pl3 319  ARG319     -0.0865
    162  CZ        59.4720   -2.3530   53.5890 C.cat 319  ARG319      0.5346
    163  NH1       59.1410   -3.2480   54.5140 N.pl3 319  ARG319      0.1354
    164  NH2       59.7260   -1.0990   53.9450 N.pl3 319  ARG319      0.1354
    165  N         54.6370   -7.4890   54.1520 N.am  320  SER320     -0.1952
    166  CA        54.2770   -8.7440   54.7940 C.3   320  SER320      0.1924
    167  C         54.6820   -8.7970   56.2610 C.2   320  SER320      0.2314
    168  O         54.2730   -9.6930   56.9920 O.2   320  SER320     -0.2863
    169  CB        54.8930   -9.9190   54.0350 C.3   320  SER320      0.2116
    170  OG        54.4220   -9.9570   52.7010 O.3   320  SER320     -0.2180
@<TRIPOS>BOND
     1    48    49    1
     2    51    50    2
     3    50    49    1
     4    81    83   ar
     5    81    80   ar
     6    49    52    1
     7    83    85   ar
     8    79    80    1
     9    79    76    1
    10    80    82   ar
    11    75    76    1
    12    34    33    2
    13    32    33    1
    14    32    35    1
    15    32    31    1
    16    76    77    1
    17    85    86    1
    18    85    84   ar
    19    33    39   am
    20    35    36    1
    21    52    53    1
    22    82    84   ar
    23    53    54    1
    24    41    42    2
    25    41    40    1
    26    39    40    1
    27    40    43    1
    28     4     3    2
    29    77    78    2
    30    77    87   am
    31    36    38   am
    32    36    37    2
    33    54    55    1
    34    55    56    2
    35    87    88    1
    36     8    10   ar
    37     8     6   ar
    38     3     2    1
    39     1     2    1
    40    43    44    1
    41    10    11   ar
    42     5     2    1
    43     5     6    1
    44     6     7   ar
    45    44    45    1
    46    56    58    1
    47    56    57    1
    48    92    91    1
    49    88    91    1
    50    88    89    1
    51    11    12    1
    52    11     9   ar
    53    89    90    2
    54   160   159    1
    55   160   161    1
    56     7     9   ar
    57   159   158    1
    58    45    46    1
    59   161   162    2
    60    46    47    1
    61   170   169    1
    62   158   155    1
    63   155   154    1
    64   155   156    1
    65   162   164    1
    66   162   163    1
    67   156   157    2
    68   156   165   am
    69   138   140   ar
    70   138   136   ar
    71   140   141   ar
    72   169   166    1
    73   165   166    1
    74   100    99   ar
    75   135   136    1
    76   135   132    1
    77   136   137   ar
    78   141   142    1
    79   141   139   ar
    80   166   167    1
    81    97    98    1
    82    97    94    1
    83    93    94    1
    84    64    63    1
    85    96    95    2
    86    99    98    1
    87    99   101   ar
    88   137   139   ar
    89    95    94    1
    90    63    60    1
    91   132   131    1
    92   132   133    1
    93    60    59    1
    94    60    61    1
    95   129   127   ar
    96   129   130   ar
    97   167   168    2
    98   134   133    2
    99   127   124   ar
   100   130   128   ar
   101   133   143   am
   102    25    24    2
   103    61    65   am
   104    61    62    2
   105   153   151   ar
   106   153   152   ar
   107    65    66    1
   108   151   149   ar
   109    68    67    2
   110   124   126   ar
   111   124   122   ar
   112   128   126   ar
   113    24    23    1
   114   152   150   ar
   115   143   144    1
   116   149   148   ar
   117   121   122    1
   118   121   118    1
   119   126   125   ar
   120   122   123   ar
   121    67    66    1
   122    67    69   am
   123   119   118    1
   124   119   120    2
   125   150   148   ar
   126   148   147    1
   127   118   117    1
   128   144   147    1
   129   144   145    1
   130    26    23    1
   131    26    27    1
   132    23    22    1
   133    70    69    1
   134    70    71    1
   135    70    73    1
   136    71    72    2
   137   125   123   ar
   138    30    28   ar
   139    21    19   ar
   140   145   146    2
   141    28    27    1
   142    28    29   ar
   143    73    74    1
   144    19    20   ar
   145    19    18    1
   146   108   107   ar
   147   115   114    1
   148    18    17    1
   149    16    15    2
   150    15    14    1
   151    17    14    1
   152   107   106    1
   153   107   109   ar
   154   114   116    1
   155   114   111    1
   156   106   103    1
   157    14    13    1
   158   113   112    2
   159   112   111    1
   160   102   103    1
   161   111   110    1
   162   103   104    1
   163   104   105    2
