@<TRIPOS>MOLECULE
tmp/2gazA01.pdb
 81 77 0 0 0
SMALL
GASTEIGER

@<TRIPOS>ATOM
      1  N          2.8240   10.2650   30.6680 N.3   103  GLU103     -0.1245
      2  CA         1.6040    9.6740   30.1360 C.3   103  GLU103      0.1567
      3  C          1.9100    8.3450   29.4140 C.2   103  GLU103      0.2260
      4  O          2.7430    8.3050   28.5120 O.2   103  GLU103     -0.2867
      5  CB         0.9440   10.6580   29.1740 C.3   103  GLU103      0.0388
      6  CG        -0.3020   11.3350   29.7160 C.3   103  GLU103      0.1160
      7  CD        -1.5670   10.5010   29.4530 C.2   103  GLU103      0.3649
      8  OE1       -1.5780    9.7530   28.4390 O.co2 103  GLU103     -0.2457
      9  OE2       -2.5470   10.6020   30.2500 O.co2 103  GLU103     -0.2457
     10  N         -6.4890    1.5040   28.2030 N.3   119  TRP119     -0.1227
     11  CA        -6.7610    2.8660   28.6400 C.3   119  TRP119      0.1737
     12  C         -7.4210    2.7960   30.0000 C.2   119  TRP119      0.2596
     13  O         -8.4560    2.1700   30.1450 O.2   119  TRP119     -0.2718
     14  CB        -7.6890    3.6010   27.6460 C.3   119  TRP119      0.0564
     15  CG        -7.8730    5.0370   28.0040 C.ar  119  TRP119      0.0003
     16  CD1       -9.0310    5.6590   28.4380 C.ar  119  TRP119      0.0946
     17  CD2       -6.8500    6.0340   28.0320 C.ar  119  TRP119      0.0152
     18  NE1       -8.7890    6.9850   28.7050 N.ar  119  TRP119     -0.2442
     19  CE2       -7.4610    7.2470   28.4700 C.ar  119  TRP119      0.0810
     20  CE3       -5.4700    6.0230   27.7360 C.ar  119  TRP119      0.0012
     21  CZ2       -6.7450    8.4390   28.5950 C.ar  119  TRP119      0.0191
     22  CZ3       -4.7490    7.2100   27.8680 C.ar  119  TRP119      0.0001
     23  CH2       -5.3940    8.4050   28.2910 C.ar  119  TRP119      0.0015
     24  N         -6.7940    3.4350   30.9780 N.am  120  GLY120     -0.1942
     25  CA        -7.2800    3.4750   32.3430 C.3   120  GLY120      0.2014
     26  C         -7.1300    2.1120   32.9670 C.2   120  GLY120      0.2639
     27  O         -6.0270    1.7180   33.3750 O.2   120  GLY120     -0.2714
     28  N         -8.2450    1.3800   33.0220 N.am  121  THR121     -0.1950
     29  CA        -8.2270    0.0440   33.6210 C.3   121  THR121      0.1897
     30  C         -8.7930   -1.0900   32.7670 C.2   121  THR121      0.2313
     31  O         -9.1170   -2.1420   33.3220 O.2   121  THR121     -0.2863
     32  CB        -8.9250   -0.0200   35.0150 C.3   121  THR121      0.1794
     33  OG1      -10.3470   -0.1340   34.8420 O.3   121  THR121     -0.2208
     34  CG2       -8.5490    1.1560   35.8940 C.3   121  THR121      0.0378
     35  N         -9.7640   -1.5550   25.1690 N.3   124  GLN124     -0.1245
     36  CA       -10.8790   -0.9310   24.4310 C.3   124  GLN124      0.1566
     37  C        -10.6920   -1.0880   22.9220 C.2   124  GLN124      0.2260
     38  O         -9.5930   -0.9590   22.4060 O.2   124  GLN124     -0.2867
     39  CB       -11.0140    0.5810   24.7560 C.3   124  GLN124      0.0367
     40  CG       -11.1840    0.9690   26.2550 C.3   124  GLN124      0.0905
     41  CD       -11.2470    2.4990   26.4870 C.2   124  GLN124      0.2608
     42  OE1      -10.8920    3.2910   25.6120 O.2   124  GLN124     -0.2717
     43  NE2      -11.6910    2.9040   27.6600 N.am  124  GLN124     -0.0878
     44  N         -4.5550   -5.9390   35.8860 N.3   148  ALA148     -0.1245
     45  CA        -3.8520   -5.3410   36.9970 C.3   148  ALA148      0.1562
     46  C         -2.3800   -5.2950   36.5850 C.2   148  ALA148      0.2260
     47  O         -1.7000   -4.2840   36.8210 O.2   148  ALA148     -0.2867
     48  CB        -4.0640   -6.1550   38.2760 C.3   148  ALA148      0.0290
     49  N         -1.8240   -2.2250   34.0680 N.3   151  GLN151     -0.1231
     50  CA        -1.8960   -0.9450   34.7980 C.3   151  GLN151      0.1698
     51  C         -0.6160   -0.6950   35.5610 C.2   151  GLN151      0.2592
     52  O         -0.0600    0.4080   35.4850 O.2   151  GLN151     -0.2718
     53  CB        -3.0570   -0.9320   35.7900 C.3   151  GLN151      0.0381
     54  CG        -4.3870   -0.8640   35.1580 C.3   151  GLN151      0.0905
     55  CD        -5.4640   -1.0750   36.1520 C.2   151  GLN151      0.2608
     56  OE1       -5.7090   -0.2330   37.0190 O.2   151  GLN151     -0.2717
     57  NE2       -6.1350   -2.2130   36.0480 N.am  151  GLN151     -0.0878
     58  N         -0.1590   -1.7230   36.2910 N.am  152  MET152     -0.1979
     59  CA         1.0880   -1.6710   37.0520 C.3   152  MET152      0.1605
     60  C          2.2240   -1.1920   36.1760 C.2   152  MET152      0.2287
     61  O          2.9570   -0.2960   36.5550 O.2   152  MET152     -0.2864
     62  CB         1.4310   -3.0480   37.6520 C.3   152  MET152      0.0413
     63  CG         0.6880   -3.3750   38.9590 C.3   152  MET152      0.0598
     64  SD         0.6280   -5.1200   39.4650 S.3   152  MET152     -0.1393
     65  CE         2.3890   -5.4950   39.6000 C.3   152  MET152      0.0692
     66  N          1.4770    2.4080   34.5570 N.3   155  ASN155     -0.1225
     67  CA         1.4050    3.4610   35.5730 C.3   155  ASN155      0.1785
     68  C          2.6810    3.6720   36.3800 C.2   155  ASN155      0.2597
     69  O          2.9720    4.7890   36.7650 O.2   155  ASN155     -0.2718
     70  CB         0.2390    3.2100   36.5380 C.3   155  ASN155      0.1169
     71  CG        -1.1280    3.4740   35.9160 C.2   155  ASN155      0.2627
     72  OD1       -1.2920    3.5190   34.6910 O.2   155  ASN155     -0.2716
     73  ND2       -2.1230    3.6380   36.7820 N.am  155  ASN155     -0.0877
     74  N          3.4200    2.5970   36.6510 N.am  156  ASP156     -0.1974
     75  CA         4.6050    2.6610   37.5010 C.3   156  ASP156      0.1709
     76  C          5.8810    2.2660   36.8080 C.2   156  ASP156      0.2293
     77  O          6.8020    3.0620   36.6960 O.2   156  ASP156     -0.2864
     78  CB         4.4540    1.7670   38.7180 C.3   156  ASP156      0.1436
     79  CG         3.2690    2.1310   39.5600 C.2   156  ASP156      0.3671
     80  OD1        2.4560    3.0010   39.1510 O.co2 156  ASP156     -0.2456
     81  OD2        3.1370    1.5210   40.6420 O.co2 156  ASP156     -0.2456
@<TRIPOS>BOND
     1    38    37    2
     2    37    36    1
     3    36    39    1
     4    36    35    1
     5    39    40    1
     6    42    41    2
     7    40    41    1
     8    41    43   am
     9    14    15    1
    10    14    11    1
    11    20    22   ar
    12    20    17   ar
    13    22    23   ar
    14    15    17   ar
    15    15    16   ar
    16    17    19   ar
    17    10    11    1
    18    23    21   ar
    19    16    18   ar
    20     8     7   ar
    21    19    21   ar
    22    19    18   ar
    23     4     3    2
    24    11    12    1
    25     5     6    1
    26     5     2    1
    27     3     2    1
    28     7     6    1
    29     7     9   ar
    30    12    13    2
    31    12    24   am
    32     2     1    1
    33    24    25    1
    34    25    26    1
    35    30    31    2
    36    30    29    1
    37    26    28   am
    38    26    27    2
    39    28    29    1
    40    29    32    1
    41    49    50    1
    42    66    67    1
    43    72    71    2
    44    50    51    1
    45    50    53    1
    46    33    32    1
    47    32    34    1
    48    54    53    1
    49    54    55    1
    50    52    51    2
    51    51    58   am
    52    67    68    1
    53    67    70    1
    54    44    45    1
    55    71    70    1
    56    71    73   am
    57    57    55   am
    58    55    56    2
    59    60    61    2
    60    60    59    1
    61    58    59    1
    62    68    74   am
    63    68    69    2
    64    46    47    2
    65    46    45    1
    66    74    75    1
    67    77    76    2
    68    76    75    1
    69    45    48    1
    70    59    62    1
    71    75    78    1
    72    62    63    1
    73    78    79    1
    74    63    64    1
    75    80    79   ar
    76    64    65    1
    77    79    81   ar
