@<TRIPOS>MOLECULE
tmp/2gbbA00.pdb
 127 115 0 0 0
SMALL
GASTEIGER

@<TRIPOS>ATOM
      1  N         29.9730   97.5100   46.9560 N.3    13  ARG13      -0.1245
      2  CA        30.6220   97.9830   45.7100 C.3    13  ARG13       0.1563
      3  C         29.9580   97.3060   44.4700 C.2    13  ARG13       0.2260
      4  O         29.5530   97.9570   43.5140 O.2    13  ARG13      -0.2867
      5  CB        32.1320   97.7170   45.7440 C.3    13  ARG13       0.0307
      6  CG        32.9180   98.5250   44.6420 C.3    13  ARG13       0.0489
      7  CD        34.4510   98.4490   44.7780 C.3    13  ARG13       0.2205
      8  NE        35.0910   99.2850   43.7600 N.pl3  13  ARG13      -0.0865
      9  CZ        35.2560   98.9410   42.4790 C.cat  13  ARG13       0.5346
     10  NH1       34.8750   97.7400   42.0490 N.pl3  13  ARG13       0.1354
     11  NH2       35.8090   99.8120   41.6220 N.pl3  13  ARG13       0.1354
     12  N         25.9510  100.3420   36.0820 N.3    19  VAL19      -0.1245
     13  CA        27.0350  100.5590   35.1040 C.3    19  VAL19       0.1561
     14  C         26.6930   99.8090   33.8290 C.2    19  VAL19       0.2260
     15  O         26.7920  100.3570   32.7530 O.2    19  VAL19      -0.2867
     16  CB        28.4320  100.1330   35.6590 C.3    19  VAL19       0.0252
     17  CG1       29.5460  100.3520   34.5970 C.3    19  VAL19       0.0019
     18  CG2       28.7910  100.8940   36.9880 C.3    19  VAL19       0.0019
     19  N         25.9980  101.3590   30.0760 N.3    23  LYS23      -0.1245
     20  CA        26.7000  100.8590   28.9040 C.3    23  LYS23       0.1561
     21  C         25.7390  100.3570   27.8080 C.2    23  LYS23       0.2260
     22  O         25.9010  100.6520   26.6290 O.2    23  LYS23      -0.2867
     23  CB        27.7120   99.7850   29.3480 C.3    23  LYS23       0.0271
     24  CG        28.9520  100.4380   30.0340 C.3    23  LYS23       0.0035
     25  CD        29.9080   99.3590   30.6410 C.3    23  LYS23       0.0206
     26  CE        31.1270   99.9820   31.3490 C.3    23  LYS23       0.1093
     27  NZ        31.9380   98.7480   31.8850 N.3    23  LYS23      -0.1314
     28  N         31.5450   96.4390   27.4840 N.3    30  ILE30      -0.1245
     29  CA        31.6900   96.2290   28.9310 C.3    30  ILE30       0.1561
     30  C         33.1190   96.5000   29.3850 C.2    30  ILE30       0.2260
     31  O         33.3290   97.1470   30.4420 O.2    30  ILE30      -0.2867
     32  CB        31.2880   94.8200   29.3470 C.3    30  ILE30       0.0252
     33  CG1       29.7550   94.6610   29.2080 C.3    30  ILE30       0.0019
     34  CG2       31.8290   94.4920   30.8030 C.3    30  ILE30       0.0019
     35  CD1       28.9420   95.9790   29.6500 C.3    30  ILE30       0.0001
     36  N         36.6550   98.2340   29.2860 N.3    32  ASP32      -0.1239
     37  CA        37.1950   99.5480   28.9520 C.3    32  ASP32       0.1674
     38  C         38.4700   99.6610   29.7890 C.2    32  ASP32       0.2266
     39  O         38.3910   99.9660   30.9810 O.2    32  ASP32      -0.2867
     40  CB        36.1720  100.6320   29.2990 C.3    32  ASP32       0.1410
     41  CG        36.7700  102.0700   29.2200 C.2    32  ASP32       0.3668
     42  OD1       37.9430  102.2060   28.8550 O.co2  32  ASP32      -0.2456
     43  OD2       36.0880  103.0460   29.5730 O.co2  32  ASP32      -0.2456
     44  N         39.4950  102.8730   31.6630 N.3    35  GLN35      -0.1231
     45  CA        38.8020  102.9840   32.9660 C.3    35  GLN35       0.1698
     46  C         39.4210  102.0010   34.0000 C.2    35  GLN35       0.2592
     47  O         39.5600  102.3260   35.1870 O.2    35  GLN35      -0.2718
     48  CB        37.2950  102.6780   32.7960 C.3    35  GLN35       0.0381
     49  CG        36.4500  102.7150   34.1330 C.3    35  GLN35       0.0905
     50  CD        36.4850  104.0660   34.8940 C.2    35  GLN35       0.2608
     51  OE1       36.8040  105.1650   34.2110 O.2    35  GLN35      -0.2717
     52  NE2       36.1990  104.0960   36.0950 N.am   35  GLN35      -0.0878
     53  N         39.7700  100.8060   33.5640 N.am   36  GLU36      -0.1979
     54  CA        40.3420   99.8030   34.5040 C.3    36  GLU36       0.1602
     55  C         41.6940  100.2600   35.0350 C.2    36  GLU36       0.2287
     56  O         41.9310  100.1990   36.2260 O.2    36  GLU36      -0.2864
     57  CB        40.4420   98.4280   33.8380 C.3    36  GLU36       0.0415
     58  CG        39.0770   97.8960   33.3810 C.3    36  GLU36       0.1163
     59  CD        39.1960   96.5620   32.6510 C.2    36  GLU36       0.3649
     60  OE1       40.3520   96.0510   32.4780 O.co2  36  GLU36      -0.2457
     61  OE2       38.1350   96.0020   32.2590 O.co2  36  GLU36      -0.2457
     62  N         41.1220  102.9130   37.7010 N.3    39  VAL39      -0.1245
     63  CA        40.6030  102.3710   38.9460 C.3    39  VAL39       0.1561
     64  C         41.7500  101.7250   39.7200 C.2    39  VAL39       0.2260
     65  O         41.8950  101.9340   40.9240 O.2    39  VAL39      -0.2867
     66  CB        39.4760  101.3420   38.6180 C.3    39  VAL39       0.0252
     67  CG1       39.2380  100.3410   39.7770 C.3    39  VAL39       0.0019
     68  CG2       38.1770  102.0700   38.2190 C.3    39  VAL39       0.0019
     69  N         38.2050   92.3060   41.6670 N.3    62  GLN62      -0.1231
     70  CA        36.9580   93.0300   41.8290 C.3    62  GLN62       0.1698
     71  C         36.4130   93.4960   40.4630 C.2    62  GLN62       0.2592
     72  O         35.1990   93.4850   40.2440 O.2    62  GLN62      -0.2718
     73  CB        37.1430   94.2490   42.7470 C.3    62  GLN62       0.0381
     74  CG        37.2410   93.8400   44.2030 C.3    62  GLN62       0.0905
     75  CD        37.2630   95.0250   45.0960 C.2    62  GLN62       0.2608
     76  OE1       36.2510   95.3660   45.7070 O.2    62  GLN62      -0.2717
     77  NE2       38.4190   95.6880   45.1750 N.am   62  GLN62      -0.0878
     78  N         37.2990   93.9550   39.5970 N.am   63  ILE63      -0.1980
     79  CA        36.9260   94.4180   38.2550 C.3    63  ILE63       0.1595
     80  C         36.3900   93.2690   37.4110 C.2    63  ILE63       0.2287
     81  O         35.3910   93.4490   36.7460 O.2    63  ILE63      -0.2864
     82  CB        38.1180   95.1230   37.5670 C.3    63  ILE63       0.0276
     83  CG1       38.2800   96.5660   38.1100 C.3    63  ILE63       0.0022
     84  CG2       38.0650   95.0400   36.0100 C.3    63  ILE63       0.0022
     85  CD1       39.7030   97.0580   37.9970 C.3    63  ILE63       0.0001
     86  N         32.8450   92.5260   38.6350 N.3    66  ALA66      -0.1231
     87  CA        32.0320   93.5720   38.1350 C.3    66  ALA66       0.1694
     88  C         31.7240   93.3820   36.6300 C.2    66  ALA66       0.2591
     89  O         30.5660   93.4520   36.2380 O.2    66  ALA66      -0.2718
     90  CB        32.7480   94.8900   38.3750 C.3    66  ALA66       0.0304
     91  N         32.7430   93.1420   35.7980 N.am   67  LYS67      -0.1980
     92  CA        32.4850   92.8300   34.3890 C.3    67  LYS67       0.1596
     93  C         31.6010   91.5960   34.2200 C.2    67  LYS67       0.2287
     94  O         30.6660   91.5940   33.3860 O.2    67  LYS67      -0.2864
     95  CB        33.7860   92.7100   33.5940 C.3    67  LYS67       0.0298
     96  CG        34.5850   94.0360   33.5320 C.3    67  LYS67       0.0038
     97  CD        35.7160   93.9220   32.4570 C.3    67  LYS67       0.0206
     98  CE        36.7060   92.8410   32.7530 C.3    67  LYS67       0.1093
     99  NZ        37.9200   93.1480   32.0050 N.3    67  LYS67      -0.1314
    100  N         28.0780   92.6570   34.7490 N.3    70  GLN70      -0.1245
    101  CA        27.6420   93.5100   33.6620 C.3    70  GLN70       0.1566
    102  C         27.3770   92.7060   32.4050 C.2    70  GLN70       0.2260
    103  O         26.3830   92.9280   31.7440 O.2    70  GLN70      -0.2867
    104  CB        28.6790   94.5790   33.3590 C.3    70  GLN70       0.0367
    105  CG        28.9110   95.5910   34.5190 C.3    70  GLN70       0.0905
    106  CD        30.0970   96.4750   34.1850 C.2    70  GLN70       0.2608
    107  OE1       29.9690   97.1710   33.1140 O.2    70  GLN70      -0.2717
    108  NE2       31.1710   96.4310   34.8350 N.am   70  GLN70      -0.0878
    109  N         29.7150  106.0690   39.8030 N.3    94  ARG94      -0.1245
    110  CA        31.1550  105.9060   39.9000 C.3    94  ARG94       0.1563
    111  C         31.7610  106.5690   41.1360 C.2    94  ARG94       0.2260
    112  O         32.7660  106.0870   41.6190 O.2    94  ARG94      -0.2867
    113  CB        31.8290  106.4210   38.6390 C.3    94  ARG94       0.0307
    114  CG        31.7150  105.4070   37.5100 C.3    94  ARG94       0.0489
    115  CD        32.5750  105.7820   36.3110 C.3    94  ARG94       0.2205
    116  NE        32.6300  104.6370   35.3970 N.pl3  94  ARG94      -0.0865
    117  CZ        32.9970  104.7000   34.1200 C.cat  94  ARG94       0.5346
    118  NH1       33.3270  105.8850   33.5510 N.pl3  94  ARG94       0.1354
    119  NH2       32.9790  103.5700   33.4010 N.pl3  94  ARG94       0.1354
    120  N         31.0420  104.1250   43.8730 N.3    97  ILE97      -0.1245
    121  CA        31.9330  102.9780   43.7170 C.3    97  ILE97       0.1561
    122  C         33.3140  103.3370   44.2870 C.2    97  ILE97       0.2260
    123  O         33.8990  102.5570   45.0180 O.2    97  ILE97      -0.2867
    124  CB        31.9900  102.5480   42.2140 C.3    97  ILE97       0.0252
    125  CG1       30.6680  101.8480   41.7920 C.3    97  ILE97       0.0019
    126  CG2       33.1810  101.6640   41.9020 C.3    97  ILE97       0.0019
    127  CD1       30.5530  101.6490   40.2270 C.3    97  ILE97       0.0001
@<TRIPOS>BOND
     1    22    21    2
     2    28    29    1
     3    21    20    1
     4    42    41   ar
     5    20    23    1
     6    20    19    1
     7    29    32    1
     8    29    30    1
     9    37    36    1
    10    37    40    1
    11    37    38    1
    12    33    32    1
    13    33    35    1
    14    41    40    1
    15    41    43   ar
    16    32    34    1
    17    23    24    1
    18    30    31    2
    19    38    39    2
    20    24    25    1
    21    25    26    1
    22    26    27    1
    23    44    45    1
    24   103   102    2
    25    99    98    1
    26    61    59   ar
    27   102   101    1
    28    97    98    1
    29    97    96    1
    30    60    59   ar
    31    59    58    1
    32    15    14    2
    33    48    45    1
    34    48    49    1
    35    45    46    1
    36   107   106    2
    37   104   101    1
    38   104   105    1
    39    58    57    1
    40    94    93    2
    41   119   117    1
    42    96    95    1
    43   118   117    1
    44    53    46   am
    45    53    54    1
    46    95    92    1
    47   101   100    1
    48    14    13    1
    49    57    54    1
    50    46    47    2
    51   117   116    2
    52    49    50    1
    53   106   105    1
    54   106   108   am
    55    51    50    2
    56    93    92    1
    57    92    91    1
    58    54    55    1
    59    17    16    1
    60    50    52   am
    61    55    56    2
    62    13    16    1
    63    13    12    1
    64   116   115    1
    65    16    18    1
    66    91    88   am
    67    84    82    1
    68    89    88    2
    69   115   114    1
    70    88    87    1
    71    81    80    2
    72    80    79    1
    73   114   113    1
    74    82    83    1
    75    82    79    1
    76    62    63    1
    77    85    83    1
    78    87    90    1
    79    87    86    1
    80    68    66    1
    81    79    78    1
    82    66    63    1
    83    66    67    1
    84   113   110    1
    85    63    64    1
    86    78    71   am
    87    64    65    2
    88   109   110    1
    89   110   111    1
    90   127   125    1
    91    72    71    2
    92    71    70    1
    93   111   112    2
    94    11     9    1
    95    69    70    1
    96   125   124    1
    97    70    73    1
    98   126   124    1
    99    10     9    1
   100   124   121    1
   101     9     8    2
   102    73    74    1
   103     4     3    2
   104   121   120    1
   105   121   122    1
   106     8     7    1
   107    74    75    1
   108   122   123    2
   109     3     2    1
   110     6     7    1
   111     6     5    1
   112    75    77   am
   113    75    76    2
   114     2     5    1
   115     2     1    1
