@<TRIPOS>MOLECULE
tmp/2gbfA00.pdb
 151 147 0 0 0
SMALL
GASTEIGER

@<TRIPOS>ATOM
      1  N         15.6970   27.4730  -78.5710 N.3    86  ARG86      -0.1245
      2  CA        16.0070   28.2970  -77.4090 C.3    86  ARG86       0.1563
      3  C         15.6970   27.6620  -76.0630 C.2    86  ARG86       0.2260
      4  O         16.5660   27.5630  -75.2060 O.2    86  ARG86      -0.2867
      5  CB        15.2860   29.6380  -77.5150 C.3    86  ARG86       0.0307
      6  CG        16.1810   30.8210  -77.2570 C.3    86  ARG86       0.0489
      7  CD        15.3890   32.1060  -77.2390 C.3    86  ARG86       0.2205
      8  NE        16.2540   33.2730  -77.4010 N.pl3  86  ARG86      -0.0865
      9  CZ        16.6320   33.7720  -78.5770 C.cat  86  ARG86       0.5346
     10  NH1       16.2160   33.2070  -79.7020 N.pl3  86  ARG86       0.1354
     11  NH2       17.4370   34.8330  -78.6310 N.pl3  86  ARG86       0.1354
     12  N          9.2430   30.3280  -79.3050 N.3   166  GLU166     -0.1231
     13  CA        10.1310   31.4710  -79.4850 C.3   166  GLU166      0.1699
     14  C          9.5280   32.8640  -79.2920 C.2   166  GLU166      0.2592
     15  O         10.0820   33.6790  -78.5470 O.2   166  GLU166     -0.2718
     16  CB        10.7640   31.4070  -80.8750 C.3   166  GLU166      0.0402
     17  CG        11.7190   32.5380  -81.1960 C.3   166  GLU166      0.1161
     18  CD        12.8870   32.5690  -80.2450 C.2   166  GLU166      0.3649
     19  OE1       13.2140   31.5060  -79.6810 O.co2 166  GLU166     -0.2457
     20  OE2       13.4930   33.6420  -80.0630 O.co2 166  GLU166     -0.2457
     21  N          8.3980   33.1260  -79.9560 N.am  167  GLU167     -0.1979
     22  CA         7.7440   34.4400  -79.9270 C.3   167  GLU167      0.1602
     23  C          6.5500   34.7260  -79.0000 C.2   167  GLU167      0.2287
     24  O          6.2980   35.8860  -78.6590 O.2   167  GLU167     -0.2864
     25  CB         7.3430   34.8020  -81.3490 C.3   167  GLU167      0.0415
     26  CG         8.4560   34.6400  -82.3610 C.3   167  GLU167      0.1163
     27  CD         9.7110   35.4000  -81.9770 C.2   167  GLU167      0.3649
     28  OE1        9.6230   36.2840  -81.0860 O.co2 167  GLU167     -0.2457
     29  OE2       10.7770   35.1250  -82.5710 O.co2 167  GLU167     -0.2457
     30  N          5.9820   42.9930  -75.5390 N.3   318  PHE318     -0.1241
     31  CA         6.1880   41.9420  -76.5330 C.3   318  PHE318      0.1605
     32  C          4.9180   41.1010  -76.6110 C.2   318  PHE318      0.2264
     33  O          4.8010   40.1710  -77.4110 O.2   318  PHE318     -0.2867
     34  CB         7.4030   41.0880  -76.1820 C.3   318  PHE318      0.0534
     35  CG         8.7200   41.7840  -76.4180 C.ar  318  PHE318     -0.0203
     36  CD1        9.3280   42.5160  -75.4140 C.ar  318  PHE318     -0.0042
     37  CD2        9.3470   41.7090  -77.6510 C.ar  318  PHE318     -0.0042
     38  CE1       10.5440   43.1620  -75.6330 C.ar  318  PHE318     -0.0003
     39  CE2       10.5660   42.3550  -77.8740 C.ar  318  PHE318     -0.0003
     40  CZ        11.1600   43.0790  -76.8640 C.ar  318  PHE318     -0.0000
     41  N         21.7260   47.0060  -80.7940 N.3   511  TYR511     -0.1241
     42  CA        20.5870   46.1160  -80.7080 C.3   511  TYR511      0.1605
     43  C         19.5050   47.0160  -81.2940 C.2   511  TYR511      0.2264
     44  O         19.1230   46.8630  -82.4520 O.2   511  TYR511     -0.2867
     45  CB        20.2910   45.7390  -79.2590 C.3   511  TYR511      0.0534
     46  CG        19.0060   44.9630  -79.0750 C.ar  511  TYR511     -0.0201
     47  CD1       18.3490   44.3870  -80.1630 C.ar  511  TYR511     -0.0009
     48  CD2       18.4260   44.8290  -77.8120 C.ar  511  TYR511     -0.0009
     49  CE1       17.1400   43.7060  -79.9990 C.ar  511  TYR511      0.0417
     50  CE2       17.2190   44.1440  -77.6360 C.ar  511  TYR511      0.0417
     51  CZ        16.5780   43.5890  -78.7330 C.ar  511  TYR511      0.1957
     52  OH        15.3650   42.9490  -78.5700 O.3   511  TYR511     -0.2866
     53  N         22.1030   39.4360  -84.3730 N.3   594  SER594     -0.1202
     54  CA        20.6870   39.2710  -84.6930 C.3   594  SER594      0.2020
     55  C         20.0580   40.6640  -85.0500 C.2   594  SER594      0.2618
     56  O         20.6320   41.2570  -86.1780 O.2   594  SER594     -0.2717
     57  CB        20.0260   38.5810  -83.4910 C.3   594  SER594      0.2103
     58  OG        18.7260   38.2580  -83.8960 O.3   594  SER594     -0.2182
     59  N         19.1020   41.2250  -84.3160 N.am  595  TYR595     -0.1975
     60  CA        18.5420   42.5320  -84.6790 C.3   595  TYR595      0.1639
     61  C         19.6420   43.5780  -84.7890 C.2   595  TYR595      0.2290
     62  O         19.6310   44.4120  -85.6970 O.2   595  TYR595     -0.2864
     63  CB        17.5310   43.0200  -83.6370 C.3   595  TYR595      0.0560
     64  CG        16.6170   44.1290  -84.1430 C.ar  595  TYR595     -0.0198
     65  CD1       15.2920   43.8570  -84.5050 C.ar  595  TYR595     -0.0009
     66  CD2       17.0820   45.4380  -84.2940 C.ar  595  TYR595     -0.0009
     67  CE1       14.4580   44.8520  -85.0040 C.ar  595  TYR595      0.0417
     68  CE2       16.2520   46.4470  -84.7960 C.ar  595  TYR595      0.0417
     69  CZ        14.9440   46.1430  -85.1520 C.ar  595  TYR595      0.1957
     70  OH        14.1380   47.1180  -85.6960 O.3   595  TYR595     -0.2866
     71  N         19.5210   40.1620  -89.7950 N.3   620  VAL620     -0.1245
     72  CA        18.2850   39.9540  -90.5040 C.3   620  VAL620      0.1561
     73  C         18.5050   40.8640  -91.6950 C.2   620  VAL620      0.2260
     74  O         18.8850   42.0160  -91.5080 O.2   620  VAL620     -0.2867
     75  CB        17.1000   40.4350  -89.6520 C.3   620  VAL620      0.0252
     76  CG1       15.8530   40.6290  -90.5140 C.3   620  VAL620      0.0019
     77  CG2       16.8370   39.4270  -88.5540 C.3   620  VAL620      0.0019
     78  N         12.7610   41.7770  -93.6330 N.3   623  TRP623     -0.1241
     79  CA        11.7110   41.1780  -92.8220 C.3   623  TRP623      0.1605
     80  C         10.8590   40.0470  -93.3790 C.2   623  TRP623      0.2264
     81  O         10.2370   39.3270  -92.6080 O.2   623  TRP623     -0.2867
     82  CB        10.8420   42.2780  -92.2150 C.3   623  TRP623      0.0550
     83  CG        11.6790   43.1340  -91.3050 C.ar  623  TRP623      0.0003
     84  CD1       12.1420   44.3960  -91.5530 C.ar  623  TRP623      0.0946
     85  CD2       12.2710   42.7320  -90.0630 C.ar  623  TRP623      0.0152
     86  NE1       12.9910   44.7990  -90.5510 N.ar  623  TRP623     -0.2442
     87  CE2       13.0870   43.7970  -89.6230 C.ar  623  TRP623      0.0810
     88  CE3       12.1940   41.5700  -89.2800 C.ar  623  TRP623      0.0012
     89  CZ2       13.8190   43.7350  -88.4360 C.ar  623  TRP623      0.0191
     90  CZ3       12.9260   41.5120  -88.0990 C.ar  623  TRP623      0.0001
     91  CH2       13.7260   42.5870  -87.6900 C.ar  623  TRP623      0.0015
     92  N         12.1070   36.8000  -91.7520 N.3   626  TYR626     -0.1241
     93  CA        11.8920   36.4750  -90.3520 C.3   626  TYR626      0.1605
     94  C         10.4880   35.9530  -90.0860 C.2   626  TYR626      0.2264
     95  O          9.5930   36.1150  -90.9160 O.2   626  TYR626     -0.2867
     96  CB        12.2090   37.6630  -89.4420 C.3   626  TYR626      0.0534
     97  CG        12.5830   37.1760  -88.0630 C.ar  626  TYR626     -0.0201
     98  CD1       13.5780   36.2070  -87.9030 C.ar  626  TYR626     -0.0009
     99  CD2       11.9130   37.6370  -86.9200 C.ar  626  TYR626     -0.0009
    100  CE1       13.8970   35.7030  -86.6580 C.ar  626  TYR626      0.0417
    101  CE2       12.2290   37.1350  -85.6580 C.ar  626  TYR626      0.0417
    102  CZ        13.2240   36.1640  -85.5390 C.ar  626  TYR626      0.1957
    103  OH        13.5390   35.6450  -84.3050 O.3   626  TYR626     -0.2866
    104  N          6.8310   37.6880  -84.5470 N.3   630  TYR630     -0.1241
    105  CA         7.6950   38.8230  -84.2710 C.3   630  TYR630      0.1605
    106  C          7.5460   39.9490  -85.3030 C.2   630  TYR630      0.2264
    107  O          7.0770   41.0380  -84.9820 O.2   630  TYR630     -0.2867
    108  CB         9.1550   38.3890  -84.2140 C.3   630  TYR630      0.0534
    109  CG        10.0480   39.5150  -83.7850 C.ar  630  TYR630     -0.0201
    110  CD1       10.1160   39.8960  -82.4470 C.ar  630  TYR630     -0.0009
    111  CD2       10.7740   40.2560  -84.7190 C.ar  630  TYR630     -0.0009
    112  CE1       10.8800   40.9880  -82.0440 C.ar  630  TYR630      0.0417
    113  CE2       11.5430   41.3560  -84.3210 C.ar  630  TYR630      0.0417
    114  CZ        11.5880   41.7150  -82.9820 C.ar  630  TYR630      0.1957
    115  OH        12.3300   42.8010  -82.5730 O.3   630  TYR630     -0.2866
    116  N          4.1910   41.8110  -85.7040 N.3   633  ARG633     -0.1245
    117  CA         3.8440   42.6100  -84.5340 C.3   633  ARG633      0.1563
    118  C          4.1970   44.0790  -84.7500 C.2   633  ARG633      0.2260
    119  O          3.5240   44.9700  -84.2360 O.2   633  ARG633     -0.2867
    120  CB         4.5580   42.0580  -83.2900 C.3   633  ARG633      0.0307
    121  CG         4.3810   42.8860  -82.0060 C.3   633  ARG633      0.0489
    122  CD         4.6090   42.0340  -80.7500 C.3   633  ARG633      0.2205
    123  NE         5.9120   41.3640  -80.7260 N.pl3 633  ARG633     -0.0865
    124  CZ         6.0990   40.1110  -80.3140 C.cat 633  ARG633      0.5346
    125  NH1        5.0580   39.3860  -79.8950 N.pl3 633  ARG633      0.1354
    126  NH2        7.3230   39.5840  -80.3070 N.pl3 633  ARG633      0.1354
    127  N         16.7540   30.1360  -86.1040 N.3   674  ASN674     -0.1225
    128  CA        16.0530   31.3950  -85.8210 C.3   674  ASN674      0.1785
    129  C         16.1740   32.4140  -86.9650 C.2   674  ASN674      0.2597
    130  O         15.1840   32.7650  -87.6110 O.2   674  ASN674     -0.2718
    131  CB        16.6030   31.9980  -84.5400 C.3   674  ASN674      0.1169
    132  CG        15.7240   33.0850  -83.9980 C.2   674  ASN674      0.2627
    133  OD1       14.9660   33.7030  -84.7390 O.2   674  ASN674     -0.2716
    134  ND2       15.8270   33.3410  -82.6990 N.am  674  ASN674     -0.0877
    135  N         17.3970   32.8890  -87.1940 N.am  675  VAL675     -0.1980
    136  CA        17.7060   33.8260  -88.2710 C.3   675  VAL675      0.1595
    137  C         18.4200   32.9310  -89.2910 C.2   675  VAL675      0.2287
    138  O         19.6280   32.7660  -89.2650 O.2   675  VAL675     -0.2864
    139  CB        18.6290   34.9220  -87.7520 C.3   675  VAL675      0.0276
    140  CG1       18.8220   35.9810  -88.7980 C.3   675  VAL675      0.0022
    141  CG2       18.0310   35.5300  -86.5060 C.3   675  VAL675      0.0022
    142  N         22.0390   29.7320  -83.3540 N.3   704  HIS704     -0.1241
    143  CA        21.8480   31.1480  -83.6480 C.3   704  HIS704      0.1621
    144  C         22.7230   31.9330  -82.6740 C.2   704  HIS704      0.2264
    145  O         22.9400   33.1230  -82.8420 O.2   704  HIS704     -0.2867
    146  CB        20.3970   31.5750  -83.4510 C.3   704  HIS704      0.0745
    147  CG        20.2080   33.0650  -83.4440 C.ar  704  HIS704      0.0817
    148  ND1       20.4430   33.8530  -84.5510 N.ar  704  HIS704     -0.2268
    149  CD2       19.8310   33.9140  -82.4560 C.ar  704  HIS704      0.1154
    150  CE1       20.2190   35.1190  -84.2470 C.ar  704  HIS704      0.1986
    151  NE2       19.8460   35.1840  -82.9820 N.ar  704  HIS704     -0.2212
@<TRIPOS>BOND
     1    78    79    1
     2    80    79    1
     3    80    81    2
     4    79    82    1
     5    82    83    1
     6    92    93    1
     7    73    74    2
     8    73    72    1
     9    84    83   ar
    10    84    86   ar
    11    83    85   ar
    12    95    94    2
    13    86    87   ar
    14    76    75    1
    15    72    71    1
    16    72    75    1
    17    93    94    1
    18    93    96    1
    19    85    87   ar
    20    85    88   ar
    21    75    77    1
    22    87    89   ar
    23    96    97    1
    24   137   138    2
    25   137   136    1
    26    88    90   ar
    27   140   139    1
    28    89    91   ar
    29   136   139    1
    30   136   135    1
    31    90    91   ar
    32    97    98   ar
    33    97    99   ar
    34    98   100   ar
    35   139   141    1
    36   130   129    2
    37   135   129   am
    38   129   128    1
    39    99   101   ar
    40   100   102   ar
    41    56    55    2
    42   127   128    1
    43   128   131    1
    44   116   117    1
    45    62    61    2
    46    70    69    1
    47   101   102   ar
    48   102   103    1
    49   106   107    2
    50   106   105    1
    51    69    67   ar
    52    69    68   ar
    53    55    54    1
    54    55    59   am
    55    67    65   ar
    56    68    66   ar
    57    61    60    1
    58   118   117    1
    59   118   119    2
    60   133   132    2
    61   111   113   ar
    62   111   109   ar
    63    54    53    1
    64    54    57    1
    65    60    59    1
    66    60    63    1
    67   148   150   ar
    68   148   147   ar
    69   104   105    1
    70   131   132    1
    71   117   120    1
    72    65    64   ar
    73   113   114   ar
    74    66    64   ar
    75   105   108    1
    76   150   151   ar
    77   108   109    1
    78    64    63    1
    79   132   134   am
    80    58    57    1
    81   109   110   ar
    82   143   146    1
    83   143   142    1
    84   143   144    1
    85   146   147    1
    86   147   149   ar
    87   120   121    1
    88   114   115    1
    89   114   112   ar
    90   151   149   ar
    91   145   144    2
    92    29    27   ar
    93    44    43    2
    94   110   112   ar
    95    26    27    1
    96    26    25    1
    97   121   122    1
    98    27    28   ar
    99    25    22    1
   100    43    42    1
   101    17    16    1
   102    17    18    1
   103    16    13    1
   104    41    42    1
   105   122   123    1
   106   123   124    2
   107    42    45    1
   108   124   126    1
   109   124   125    1
   110    18    20   ar
   111    18    19   ar
   112    47    49   ar
   113    47    46   ar
   114    49    51   ar
   115    21    22    1
   116    21    14   am
   117    22    23    1
   118    10     9    1
   119    13    12    1
   120    13    14    1
   121    14    15    2
   122    45    46    1
   123    46    48   ar
   124    23    24    2
   125    51    52    1
   126    51    50   ar
   127    11     9    1
   128     9     8    2
   129     1     2    1
   130    39    37   ar
   131    39    40   ar
   132    48    50   ar
   133    37    35   ar
   134     5     2    1
   135     5     6    1
   136    33    32    2
   137     2     3    1
   138     8     7    1
   139     6     7    1
   140    40    38   ar
   141    32    31    1
   142    31    34    1
   143    31    30    1
   144    35    34    1
   145    35    36   ar
   146     3     4    2
   147    38    36   ar
