@<TRIPOS>MOLECULE
tmp/2gbpA00.pdb
 123 117 0 0 0
SMALL
GASTEIGER

@<TRIPOS>ATOM
      1  N         45.6400   29.7640   43.4530 N.3    10  TYR10      -0.1241
      2  CA        46.2330   31.0210   44.0160 C.3    10  TYR10       0.1605
      3  C         47.1730   30.8320   45.1420 C.2    10  TYR10       0.2264
      4  O         48.1470   31.6530   45.1890 O.2    10  TYR10      -0.2867
      5  CB        45.0740   32.0300   44.3150 C.3    10  TYR10       0.0534
      6  CG        44.6200   32.0550   45.7410 C.ar   10  TYR10      -0.0201
      7  CD1       45.1810   32.9870   46.6210 C.ar   10  TYR10      -0.0009
      8  CD2       43.5800   31.1650   46.1280 C.ar   10  TYR10      -0.0009
      9  CE1       44.7420   33.0160   47.9530 C.ar   10  TYR10       0.0417
     10  CE2       43.1320   31.2500   47.4890 C.ar   10  TYR10       0.0417
     11  CZ        43.7330   32.1440   48.3460 C.ar   10  TYR10       0.1957
     12  OH        43.3100   32.2180   49.6480 O.3    10  TYR10      -0.2866
     13  N         45.7040   27.4100   51.1270 N.3    14  ASP14      -0.1239
     14  CA        44.3270   27.9270   51.4090 C.3    14  ASP14       0.1674
     15  C         43.6200   26.6300   51.6960 C.2    14  ASP14       0.2266
     16  O         43.6600   25.6610   50.8980 O.2    14  ASP14      -0.2867
     17  CB        43.7960   28.6590   50.2350 C.3    14  ASP14       0.1410
     18  CG        42.3520   29.0990   50.3470 C.2    14  ASP14       0.3668
     19  OD1       42.0920   30.3110   50.5750 O.co2  14  ASP14      -0.2456
     20  OD2       41.5180   28.2630   50.1470 O.co2  14  ASP14      -0.2456
     21  N         40.3840   25.5840   51.6610 N.3    16  PHE16      -0.1227
     22  CA        39.3800   25.2100   50.6990 C.3    16  PHE16       0.1736
     23  C         40.0130   24.7890   49.3370 C.2    16  PHE16       0.2595
     24  O         39.7500   23.7580   48.7740 O.2    16  PHE16      -0.2718
     25  CB        38.3830   26.3820   50.4700 C.3    16  PHE16       0.0547
     26  CG        37.3140   25.9270   49.4610 C.ar   16  PHE16      -0.0202
     27  CD1       37.2460   26.5480   48.2170 C.ar   16  PHE16      -0.0042
     28  CD2       36.4180   24.9590   49.8300 C.ar   16  PHE16      -0.0042
     29  CE1       36.2740   26.1090   47.3020 C.ar   16  PHE16      -0.0003
     30  CE2       35.4330   24.5120   48.9560 C.ar   16  PHE16      -0.0003
     31  CZ        35.3760   25.0740   47.6540 C.ar   16  PHE16      -0.0000
     32  N         40.8820   25.7060   48.8620 N.am   17  MET17      -0.1979
     33  CA        41.5580   25.3990   47.5300 C.3    17  MET17       0.1605
     34  C         42.3760   24.1610   47.6360 C.2    17  MET17       0.2287
     35  O         42.6470   23.5140   46.6150 O.2    17  MET17      -0.2864
     36  CB        42.3420   26.6370   47.0550 C.3    17  MET17       0.0413
     37  CG        41.4130   27.7460   46.5800 C.3    17  MET17       0.0598
     38  SD        40.0750   27.2690   45.5470 S.3    17  MET17      -0.1393
     39  CE        40.9590   26.4340   44.1390 C.3    17  MET17       0.0692
     40  N         36.6790   29.5750   41.1120 N.3    91  ASN91      -0.1225
     41  CA        36.6930   30.0300   42.5370 C.3    91  ASN91       0.1785
     42  C         36.8530   31.5270   42.7250 C.2    91  ASN91       0.2597
     43  O         36.1020   32.0410   43.6110 O.2    91  ASN91      -0.2718
     44  CB        37.6480   29.1390   43.3120 C.3    91  ASN91       0.1169
     45  CG        37.8920   29.8050   44.6730 C.2    91  ASN91       0.2627
     46  OD1       38.8210   30.5660   44.9080 O.2    91  ASN91      -0.2716
     47  ND2       36.9790   29.4940   45.6590 N.am   91  ASN91      -0.0877
     48  N         37.6160   32.3220   41.9920 N.am   92  LYS92      -0.1980
     49  CA        37.6440   33.7890   42.2030 C.3    92  LYS92       0.1596
     50  C         36.9900   34.2950   40.9360 C.2    92  LYS92       0.2287
     51  O         37.5300   34.1620   39.7920 O.2    92  LYS92      -0.2864
     52  CB        39.0310   34.3100   42.5140 C.3    92  LYS92       0.0298
     53  CG        39.6940   33.7780   43.7750 C.3    92  LYS92       0.0038
     54  CD        40.6560   34.7790   44.3970 C.3    92  LYS92       0.0206
     55  CE        41.6280   34.1360   45.3600 C.3    92  LYS92       0.1093
     56  NZ        42.5310   35.1790   45.9170 N.3    92  LYS92      -0.1314
     57  N         37.0250   40.3010   47.0610 N.3   152  HIS152     -0.1241
     58  CA        36.7460   38.9080   46.6150 C.3   152  HIS152      0.1621
     59  C         35.2430   38.7120   46.5560 C.2   152  HIS152      0.2264
     60  O         34.5810   38.9670   47.6240 O.2   152  HIS152     -0.2867
     61  CB        37.4190   37.9650   47.5830 C.3   152  HIS152      0.0745
     62  CG        37.3570   36.5240   47.2250 C.ar  152  HIS152      0.0817
     63  ND1       36.1730   35.8510   46.9610 N.ar  152  HIS152     -0.2268
     64  CD2       38.3520   35.6070   47.1610 C.ar  152  HIS152      0.1154
     65  CE1       36.4650   34.5500   46.7380 C.ar  152  HIS152      0.1986
     66  NE2       37.7720   34.4280   46.8380 N.ar  152  HIS152     -0.2212
     67  N         33.1780   36.3690   46.9790 N.3   154  ASP154     -0.1239
     68  CA        32.6000   35.5410   48.0760 C.3   154  ASP154      0.1674
     69  C         32.6350   36.3690   49.3840 C.2   154  ASP154      0.2266
     70  O         31.6480   36.3390   50.0940 O.2   154  ASP154     -0.2867
     71  CB        33.2860   34.2180   48.2640 C.3   154  ASP154      0.1410
     72  CG        32.9640   33.1790   47.2490 C.2   154  ASP154      0.3668
     73  OD1       33.7990   32.3400   46.9500 O.co2 154  ASP154     -0.2456
     74  OD2       31.8240   33.1750   46.7320 O.co2 154  ASP154     -0.2456
     75  N         29.0390   37.3890   51.0680 N.3   158  ARG158     -0.1245
     76  CA        28.7610   36.6720   52.3060 C.3   158  ARG158      0.1563
     77  C         28.6050   37.7030   53.4210 C.2   158  ARG158      0.2260
     78  O         27.7380   37.4700   54.2780 O.2   158  ARG158     -0.2867
     79  CB        29.8500   35.6520   52.6000 C.3   158  ARG158      0.0307
     80  CG        29.7040   34.3730   51.7610 C.3   158  ARG158      0.0489
     81  CD        30.9390   33.5890   51.8370 C.3   158  ARG158      0.2205
     82  NE        31.0030   32.4620   50.9570 N.pl3 158  ARG158     -0.0865
     83  CZ        32.1230   31.7450   50.8040 C.cat 158  ARG158      0.5346
     84  NH1       33.1800   31.8340   51.6140 N.pl3 158  ARG158      0.1354
     85  NH2       32.1220   30.9610   49.6840 N.pl3 158  ARG158      0.1354
     86  N         40.9660   35.1230   54.8060 N.3   183  TRP183     -0.1241
     87  CA        40.6200   33.7370   54.7530 C.3   183  TRP183      0.1605
     88  C         41.4710   32.8060   55.5680 C.2   183  TRP183      0.2264
     89  O         41.3380   31.5600   55.4450 O.2   183  TRP183     -0.2867
     90  CB        40.7840   33.3450   53.2450 C.3   183  TRP183      0.0550
     91  CG        39.9690   33.9960   52.2240 C.ar  183  TRP183      0.0003
     92  CD1       40.5040   34.5540   51.0510 C.ar  183  TRP183      0.0946
     93  CD2       38.5300   34.1440   52.0600 C.ar  183  TRP183      0.0152
     94  NE1       39.5140   35.0490   50.2590 N.ar  183  TRP183     -0.2442
     95  CE2       38.2800   34.7790   50.8280 C.ar  183  TRP183      0.0810
     96  CE3       37.4580   33.7440   52.8750 C.ar  183  TRP183      0.0012
     97  CZ2       36.9800   35.0900   50.4050 C.ar  183  TRP183      0.0191
     98  CZ3       36.1500   34.0290   52.4350 C.ar  183  TRP183      0.0001
     99  CH2       35.9570   34.7050   51.2560 C.ar  183  TRP183      0.0015
    100  N         34.4490   32.2070   56.1790 N.3   211  ASN211     -0.1240
    101  CA        34.8440   30.8510   55.8560 C.3   211  ASN211      0.1653
    102  C         35.1870   30.1040   57.1700 C.2   211  ASN211      0.2266
    103  O         35.3440   30.7210   58.2320 O.2   211  ASN211     -0.2867
    104  CB        35.9950   30.6510   54.8230 C.3   211  ASN211      0.1155
    105  CG        37.3630   31.0060   55.3690 C.2   211  ASN211      0.2627
    106  OD1       37.4930   31.5420   56.4780 O.2   211  ASN211     -0.2716
    107  ND2       38.4320   30.7400   54.5650 N.am  211  ASN211     -0.0877
    108  N         31.9400   26.6410   54.2130 N.3   236  ASP236     -0.1239
    109  CA        32.7490   25.6910   53.4390 C.3   236  ASP236      0.1674
    110  C         32.4100   24.2120   53.7090 C.2   236  ASP236      0.2266
    111  O         32.4290   23.4770   52.7170 O.2   236  ASP236     -0.2867
    112  CB        34.3230   25.8350   53.5680 C.3   236  ASP236      0.1410
    113  CG        34.8800   26.9990   52.7580 C.2   236  ASP236      0.3668
    114  OD1       36.0660   27.4170   52.9930 O.co2 236  ASP236     -0.2456
    115  OD2       34.1070   27.5240   51.9010 O.co2 236  ASP236     -0.2456
    116  N         30.4600   24.2680   50.6630 N.3   256  ASN256     -0.1240
    117  CA        30.9620   24.9520   49.3840 C.3   256  ASN256      0.1653
    118  C         31.3950   23.6250   48.7210 C.2   256  ASN256      0.2266
    119  O         32.3570   22.9410   49.1970 O.2   256  ASN256     -0.2867
    120  CB        31.9280   26.0090   49.7600 C.3   256  ASN256      0.1155
    121  CG        32.4490   26.8290   48.5690 C.2   256  ASN256      0.2627
    122  OD1       32.0250   26.4890   47.4540 O.2   256  ASN256     -0.2716
    123  ND2       33.2550   27.8120   48.7980 N.am  256  ASN256     -0.0877
@<TRIPOS>BOND
     1    51    50    2
     2    50    49    1
     3    40    41    1
     4    48    49    1
     5    48    42   am
     6    49    52    1
     7    52    53    1
     8    41    42    1
     9    41    44    1
    10    42    43    2
    11    44    45    1
    12     1     2    1
    13    53    54    1
    14     2     5    1
    15     2     3    1
    16    39    38    1
    17     5     6    1
    18    54    55    1
    19    45    46    2
    20    45    47   am
    21     3     4    2
    22    55    56    1
    23    38    37    1
    24     6     8   ar
    25     6     7   ar
    26     8    10   ar
    27    59    58    1
    28    59    60    2
    29    37    36    1
    30    58    57    1
    31    58    61    1
    32    35    34    2
    33     7     9   ar
    34    74    72   ar
    35    65    66   ar
    36    65    63   ar
    37    66    64   ar
    38    73    72   ar
    39    63    62   ar
    40    67    68    1
    41    36    33    1
    42    64    62   ar
    43    62    61    1
    44    72    71    1
    45    29    31   ar
    46    29    27   ar
    47   122   121    2
    48    10    11   ar
    49    33    34    1
    50    33    32    1
    51    31    30   ar
    52     9    11   ar
    53    68    71    1
    54    68    69    1
    55    27    26   ar
    56    11    12    1
    57   121   123   am
    58   121   120    1
    59   118   119    2
    60   118   117    1
    61    24    23    2
    62    32    23   am
    63    30    28   ar
    64    23    22    1
    65   117   120    1
    66   117   116    1
    67    69    70    2
    68    26    28   ar
    69    26    25    1
    70    85    83    1
    71    20    18   ar
    72    17    18    1
    73    17    14    1
    74    94    95   ar
    75    94    92   ar
    76    18    19   ar
    77    97    95   ar
    78    97    99   ar
    79    25    22    1
    80    22    21    1
    81    83    82    2
    82    83    84    1
    83    95    93   ar
    84    16    15    2
    85    82    81    1
    86    92    91   ar
    87    75    76    1
    88    13    14    1
    89    99    98   ar
    90    14    15    1
    91    80    81    1
    92    80    79    1
    93   115   113   ar
    94    93    91   ar
    95    93    96   ar
    96    91    90    1
    97    76    79    1
    98    76    77    1
    99    98    96   ar
   100   111   110    2
   101   113   114   ar
   102   113   112    1
   103    90    87    1
   104    77    78    2
   105   109   112    1
   106   109   110    1
   107   109   108    1
   108   107   105   am
   109    87    86    1
   110    87    88    1
   111   104   105    1
   112   104   101    1
   113   105   106    2
   114    89    88    2
   115   101   100    1
   116   101   102    1
   117   102   103    2
