@<TRIPOS>MOLECULE
tmp/2gbxE00.pdb
 154 145 0 0 0
SMALL
GASTEIGER

@<TRIPOS>ATOM
      1  N         73.7600  -65.7040   81.0310 N.3   195  ASN195     -0.1225
      2  CA        74.3750  -66.3150   82.2070 C.3   195  ASN195      0.1785
      3  C         73.5260  -67.4650   82.7400 C.2   195  ASN195      0.2597
      4  O         74.0130  -68.5810   82.9040 O.2   195  ASN195     -0.2718
      5  CB        74.5840  -65.2680   83.3080 C.3   195  ASN195      0.1169
      6  CG        75.3540  -65.8140   84.5000 C.2   195  ASN195      0.2627
      7  OD1       74.8770  -65.7680   85.6340 O.2   195  ASN195     -0.2716
      8  ND2       76.5500  -66.3340   84.2460 N.am  195  ASN195     -0.0877
      9  N         72.2500  -67.1860   82.9860 N.am  196  PHE196     -0.1976
     10  CA        71.3370  -68.1860   83.5410 C.3   196  PHE196      0.1639
     11  C         70.8640  -69.2300   82.5250 C.2   196  PHE196      0.2290
     12  O         70.2760  -70.2310   82.9210 O.2   196  PHE196     -0.2864
     13  CB        70.1230  -67.5040   84.1890 C.3   196  PHE196      0.0560
     14  CG        70.3860  -66.9970   85.5800 C.ar  196  PHE196     -0.0200
     15  CD1       69.9180  -67.6930   86.6880 C.ar  196  PHE196     -0.0042
     16  CD2       71.1090  -65.8290   85.7830 C.ar  196  PHE196     -0.0042
     17  CE1       70.1610  -67.2290   87.9740 C.ar  196  PHE196     -0.0003
     18  CE2       71.3570  -65.3590   87.0660 C.ar  196  PHE196     -0.0003
     19  CZ        70.8820  -66.0600   88.1630 C.ar  196  PHE196     -0.0000
     20  N         75.5090  -70.9380   81.7030 N.3   199  ASP199     -0.1225
     21  CA        76.8480  -70.5560   82.1450 C.3   199  ASP199      0.1805
     22  C         77.2260  -71.3480   83.3970 C.2   199  ASP199      0.2598
     23  O         77.4120  -70.7880   84.4770 O.2   199  ASP199     -0.2718
     24  CB        76.9250  -69.0450   82.4010 C.3   199  ASP199      0.1424
     25  CG        78.3560  -68.5170   82.4250 C.2   199  ASP199      0.3668
     26  OD1       79.3100  -69.3140   82.2860 O.co2 199  ASP199     -0.2456
     27  OD2       78.5260  -67.2900   82.5840 O.co2 199  ASP199     -0.2456
     28  N         77.3270  -72.6650   83.2370 N.am  200  GLY200     -0.1957
     29  CA        77.8740  -73.5310   84.2800 C.3   200  GLY200      0.1869
     30  C         79.3840  -73.3830   84.3860 C.2   200  GLY200      0.2309
     31  O         79.9900  -73.7940   85.3770 O.2   200  GLY200     -0.2863
     32  N         81.0790  -70.5660   84.6430 N.3   202  HIS202     -0.1226
     33  CA        81.4370  -69.5410   85.6320 C.3   202  HIS202      0.1752
     34  C         81.1730  -69.9940   87.0720 C.2   202  HIS202      0.2595
     35  O         81.7030  -69.4020   88.0120 O.2   202  HIS202     -0.2718
     36  CB        80.6850  -68.2290   85.3600 C.3   202  HIS202      0.0759
     37  CG        79.4020  -68.0910   86.1220 C.ar  202  HIS202      0.0818
     38  ND1       78.2530  -68.7700   85.7770 N.ar  202  HIS202     -0.2268
     39  CD2       79.0860  -67.3490   87.2100 C.ar  202  HIS202      0.1154
     40  CE1       77.2870  -68.4560   86.6210 C.ar  202  HIS202      0.1986
     41  NE2       77.7660  -67.5940   87.5000 N.ar  202  HIS202     -0.2212
     42  N         80.3540  -71.0320   87.2380 N.am  203  VAL203     -0.1980
     43  CA        79.9250  -71.4840   88.5660 C.3   203  VAL203      0.1595
     44  C         81.1000  -71.9200   89.4390 C.2   203  VAL203      0.2287
     45  O         81.1690  -71.5670   90.6180 O.2   203  VAL203     -0.2864
     46  CB        78.9080  -72.6460   88.4690 C.3   203  VAL203      0.0276
     47  CG1       78.5560  -73.1750   89.8540 C.3   203  VAL203      0.0022
     48  CG2       77.6560  -72.1890   87.7430 C.3   203  VAL203      0.0022
     49  N         81.7870  -68.7200   91.8880 N.3   207  HIS207     -0.1241
     50  CA        81.2080  -69.1420   93.1680 C.3   207  HIS207      0.1621
     51  C         82.0170  -70.2720   93.8120 C.2   207  HIS207      0.2264
     52  O         81.4490  -71.2400   94.3230 O.2   207  HIS207     -0.2867
     53  CB        79.7490  -69.5760   92.9770 C.3   207  HIS207      0.0745
     54  CG        78.9410  -68.6330   92.1400 C.ar  207  HIS207      0.0817
     55  ND1       78.7470  -67.3110   92.4810 N.ar  207  HIS207     -0.2268
     56  CD2       78.2750  -68.8250   90.9750 C.ar  207  HIS207      0.1154
     57  CE1       78.0000  -66.7280   91.5610 C.ar  207  HIS207      0.1986
     58  NE2       77.6980  -67.6250   90.6370 N.ar  207  HIS207     -0.2212
     59  N         80.3870  -72.3470   97.1120 N.3   211  LEU211     -0.1245
     60  CA        80.1690  -73.7820   96.8980 C.3   211  LEU211      0.1561
     61  C         81.0400  -74.6550   97.8020 C.2   211  LEU211      0.2260
     62  O         80.5760  -75.6760   98.3150 O.2   211  LEU211     -0.2867
     63  CB        80.4160  -74.1510   95.4300 C.3   211  LEU211      0.0270
     64  CG        79.3890  -73.6220   94.4260 C.3   211  LEU211      0.0019
     65  CD1       79.9180  -73.7350   93.0040 C.3   211  LEU211      0.0001
     66  CD2       78.0650  -74.3570   94.5670 C.3   211  LEU211      0.0001
     67  N         77.7450  -80.3230   94.8690 N.3   218  LEU218     -0.1245
     68  CA        78.2050  -79.2370   93.9970 C.3   218  LEU218      0.1561
     69  C         79.5330  -78.6040   94.4350 C.2   218  LEU218      0.2260
     70  O         80.0140  -77.6710   93.7900 O.2   218  LEU218     -0.2867
     71  CB        77.1240  -78.1530   93.9010 C.3   218  LEU218      0.0270
     72  CG        75.7600  -78.6130   93.3780 C.3   218  LEU218      0.0019
     73  CD1       74.7230  -77.5180   93.5570 C.3   218  LEU218      0.0001
     74  CD2       75.8510  -79.0330   91.9180 C.3   218  LEU218      0.0001
     75  N         82.8170  -78.6110   91.9200 N.3   221  LEU221     -0.1245
     76  CA        82.9930  -77.6170   90.8570 C.3   221  LEU221      0.1561
     77  C         83.9970  -76.5180   91.2200 C.2   221  LEU221      0.2260
     78  O         84.5690  -75.8890   90.3300 O.2   221  LEU221     -0.2867
     79  CB        81.6460  -76.9750   90.5020 C.3   221  LEU221      0.0270
     80  CG        80.5820  -77.9080   89.9180 C.3   221  LEU221      0.0019
     81  CD1       79.2270  -77.2200   89.8800 C.3   221  LEU221      0.0001
     82  CD2       80.9820  -78.3860   88.5310 C.3   221  LEU221      0.0001
     83  N         72.3210  -80.3130   85.9830 N.3   248  ILE248     -0.1245
     84  CA        73.2980  -81.0350   86.7960 C.3   248  ILE248      0.1561
     85  C         72.5760  -82.2010   87.4660 C.2   248  ILE248      0.2260
     86  O         71.6340  -81.9900   88.2290 O.2   248  ILE248     -0.2867
     87  CB        73.9290  -80.1290   87.8730 C.3   248  ILE248      0.0252
     88  CG1       74.5660  -78.8940   87.2290 C.3   248  ILE248      0.0019
     89  CG2       74.9700  -80.9010   88.6750 C.3   248  ILE248      0.0019
     90  CD1       75.2380  -77.9630   88.2190 C.3   248  ILE248      0.0001
     91  N         72.4430  -76.7040   96.6680 N.3   255  LEU255     -0.1245
     92  CA        72.7830  -75.5020   97.4310 C.3   255  LEU255      0.1561
     93  C         72.0020  -75.3930   98.7440 C.2   255  LEU255      0.2260
     94  O         72.4070  -74.6590   99.6470 O.2   255  LEU255     -0.2867
     95  CB        72.5510  -74.2480   96.5820 C.3   255  LEU255      0.0270
     96  CG        73.3550  -74.1630   95.2810 C.3   255  LEU255      0.0019
     97  CD1       72.9740  -72.9190   94.4980 C.3   255  LEU255      0.0001
     98  CD2       74.8510  -74.1790   95.5600 C.3   255  LEU255      0.0001
     99  N         69.5140  -80.2470   88.7950 N.3   288  HIS288     -0.1241
    100  CA        69.5080  -78.7990   89.0080 C.3   288  HIS288      0.1621
    101  C         69.5260  -78.0630   87.6740 C.2   288  HIS288      0.2264
    102  O         70.4750  -78.1990   86.9010 O.2   288  HIS288     -0.2867
    103  CB        70.7220  -78.3710   89.8350 C.3   288  HIS288      0.0745
    104  CG        70.6320  -76.9720   90.3580 C.ar  288  HIS288      0.0817
    105  ND1       70.8410  -75.8640   89.5640 N.ar  288  HIS288     -0.2268
    106  CD2       70.3530  -76.5000   91.5970 C.ar  288  HIS288      0.1154
    107  CE1       70.6930  -74.7700   90.2910 C.ar  288  HIS288      0.1986
    108  NE2       70.3990  -75.1290   91.5280 N.ar  288  HIS288     -0.2212
    109  N         69.3340  -74.5980   85.1150 N.3   290  ASN290     -0.1240
    110  CA        69.5890  -73.1710   84.9650 C.3   290  ASN290      0.1653
    111  C         68.9830  -72.7280   83.6380 C.2   290  ASN290      0.2266
    112  O         69.6010  -72.8740   82.5820 O.2   290  ASN290     -0.2867
    113  CB        71.0860  -72.8430   85.0460 C.3   290  ASN290      0.1155
    114  CG        71.9440  -73.7860   84.2220 C.2   290  ASN290      0.2627
    115  OD1       72.0130  -74.9840   84.5010 O.2   290  ASN290     -0.2716
    116  ND2       72.6170  -73.2430   83.2110 N.am  290  ASN290     -0.0877
    117  N         66.1940  -70.9980   88.3920 N.3   300  LEU300     -0.1245
    118  CA        67.0110  -72.1510   88.7550 C.3   300  LEU300      0.1561
    119  C         66.1530  -73.1650   89.5070 C.2   300  LEU300      0.2260
    120  O         65.8910  -72.9980   90.6990 O.2   300  LEU300     -0.2867
    121  CB        68.1870  -71.7140   89.6350 C.3   300  LEU300      0.0270
    122  CG        69.1610  -70.6910   89.0440 C.3   300  LEU300      0.0019
    123  CD1       70.0860  -70.1480   90.1250 C.3   300  LEU300      0.0001
    124  CD2       69.9650  -71.3000   87.9080 C.3   300  LEU300      0.0001
    125  N         70.3960  -66.6200   96.1480 N.3   345  PHE345     -0.1241
    126  CA        70.2120  -65.7750   94.9610 C.3   345  PHE345      0.1605
    127  C         69.2770  -64.5750   95.1750 C.2   345  PHE345      0.2264
    128  O         68.6180  -64.1180   94.2320 O.2   345  PHE345     -0.2867
    129  CB        69.7090  -66.6290   93.7890 C.3   345  PHE345      0.0534
    130  CG        70.7510  -67.5450   93.2160 C.ar  345  PHE345     -0.0203
    131  CD1       71.6400  -67.0880   92.2520 C.ar  345  PHE345     -0.0042
    132  CD2       70.8430  -68.8640   93.6370 C.ar  345  PHE345     -0.0042
    133  CE1       72.6060  -67.9310   91.7180 C.ar  345  PHE345     -0.0003
    134  CE2       71.8040  -69.7140   93.1080 C.ar  345  PHE345     -0.0003
    135  CZ        72.6880  -69.2470   92.1460 C.ar  345  PHE345     -0.0000
    136  N         75.5370  -66.2580   96.5070 N.3   351  LEU351     -0.1245
    137  CA        76.0490  -66.5030   95.1570 C.3   351  LEU351      0.1561
    138  C         75.8350  -65.2860   94.2580 C.2   351  LEU351      0.2260
    139  O         76.7810  -64.7840   93.6540 O.2   351  LEU351     -0.2867
    140  CB        75.3840  -67.7370   94.5370 C.3   351  LEU351      0.0270
    141  CG        75.9220  -69.0980   94.9920 C.3   351  LEU351      0.0019
    142  CD1       75.6680  -69.3300   96.4730 C.3   351  LEU351      0.0001
    143  CD2       75.3010  -70.2110   94.1660 C.3   351  LEU351      0.0001
    144  N         76.8090  -79.5550   80.6410 N.3   399  PHE399     -0.1241
    145  CA        76.1330  -78.3290   81.0740 C.3   399  PHE399      0.1605
    146  C         77.1070  -77.1470   81.1150 C.2   399  PHE399      0.2264
    147  O         76.6860  -75.9920   81.0280 O.2   399  PHE399     -0.2867
    148  CB        75.4210  -78.5300   82.4220 C.3   399  PHE399      0.0534
    149  CG        76.2740  -78.2310   83.6270 C.ar  399  PHE399     -0.0203
    150  CD1       77.2410  -79.1320   84.0560 C.ar  399  PHE399     -0.0042
    151  CD2       76.0910  -77.0540   84.3470 C.ar  399  PHE399     -0.0042
    152  CE1       78.0220  -78.8590   85.1750 C.ar  399  PHE399     -0.0003
    153  CE2       76.8670  -76.7740   85.4650 C.ar  399  PHE399     -0.0003
    154  CZ        77.8340  -77.6770   85.8790 C.ar  399  PHE399     -0.0000
@<TRIPOS>BOND
     1   144   145    1
     2   147   146    2
     3     1     2    1
     4   145   146    1
     5   145   148    1
     6    20    21    1
     7    21    24    1
     8    21    22    1
     9     2     3    1
    10     2     5    1
    11    26    25   ar
    12    24    25    1
    13   148   149    1
    14    25    27   ar
    15    11    12    2
    16    11    10    1
    17   112   111    2
    18     3     4    2
    19     3     9   am
    20     9    10    1
    21   116   114   am
    22    28    22   am
    23    28    29    1
    24     5     6    1
    25    22    23    2
    26    10    13    1
    27   149   150   ar
    28   149   151   ar
    29   111   110    1
    30   150   152   ar
    31    13    14    1
    32   114   115    2
    33   114   113    1
    34     8     6   am
    35    29    30    1
    36   151   153   ar
    37    30    31    2
    38     6     7    2
    39    32    33    1
    40   110   113    1
    41   110   109    1
    42   152   154   ar
    43    36    33    1
    44    36    37    1
    45   153   154   ar
    46    14    16   ar
    47    14    15   ar
    48    33    34    1
    49    38    37   ar
    50    38    40   ar
    51    16    18   ar
    52    83    84    1
    53    37    39   ar
    54    40    41   ar
    55    15    17   ar
    56    84    85    1
    57    84    87    1
    58   102   101    2
    59    18    19   ar
    60    34    42   am
    61    34    35    2
    62    39    41   ar
    63    88    87    1
    64    88    90    1
    65    42    43    1
    66    85    86    2
    67   101   100    1
    68    48    46    1
    69    87    89    1
    70   124   122    1
    71    17    19   ar
    72   117   118    1
    73    46    43    1
    74    46    47    1
    75    82    80    1
    76    43    44    1
    77   118   119    1
    78   118   121    1
    79    99   100    1
    80   100   103    1
    81   122   121    1
    82   122   123    1
    83    44    45    2
    84   119   120    2
    85   105   107   ar
    86   105   104   ar
    87   103   104    1
    88    81    80    1
    89    80    79    1
    90   107   108   ar
    91    78    77    2
    92   104   106   ar
    93    79    76    1
    94    58    56   ar
    95    58    57   ar
    96    76    77    1
    97    76    75    1
    98    56    54   ar
    99   108   106   ar
   100    57    55   ar
   101   133   135   ar
   102   133   131   ar
   103    49    50    1
   104    74    72    1
   105    54    55   ar
   106    54    53    1
   107   135   134   ar
   108   131   130   ar
   109    53    50    1
   110    65    64    1
   111   134   132   ar
   112    50    51    1
   113   130   132   ar
   114   130   129    1
   115    72    73    1
   116    72    71    1
   117   139   138    2
   118   129   126    1
   119    70    69    2
   120    51    52    2
   121    71    68    1
   122    68    69    1
   123    68    67    1
   124   143   141    1
   125   128   127    2
   126   138   137    1
   127    64    66    1
   128    64    63    1
   129    97    96    1
   130   140   141    1
   131   140   137    1
   132   126   127    1
   133   126   125    1
   134   141   142    1
   135   137   136    1
   136    96    98    1
   137    96    95    1
   138    63    60    1
   139    95    92    1
   140    91    92    1
   141    60    59    1
   142    60    61    1
   143    92    93    1
   144    61    62    2
   145    93    94    2
