@<TRIPOS>MOLECULE
tmp/2gbyC00.pdb
 138 130 0 0 0
SMALL
GASTEIGER

@<TRIPOS>ATOM
      1  N        -63.8480  -53.3810    2.9210 N.3    95  GLN95      -0.1245
      2  CA       -65.2920  -53.2710    2.9310 C.3    95  GLN95       0.1566
      3  C        -65.9980  -54.4910    3.4750 C.2    95  GLN95       0.2260
      4  O        -66.9060  -54.3710    4.2840 O.2    95  GLN95      -0.2867
      5  CB       -65.8250  -52.9710    1.5360 C.3    95  GLN95       0.0367
      6  CG       -67.2700  -52.5210    1.5390 C.3    95  GLN95       0.0905
      7  CD       -67.5070  -51.3490    2.4980 C.2    95  GLN95       0.2608
      8  OE1      -66.8120  -50.3280    2.4520 O.2    95  GLN95      -0.2717
      9  NE2      -68.5030  -51.4930    3.3660 N.am   95  GLN95      -0.0878
     10  N        -65.6910  -54.9140    7.1460 N.3    98  ILE98      -0.1231
     11  CA       -66.4590  -53.8600    7.7800 C.3    98  ILE98       0.1692
     12  C        -67.9070  -54.3170    7.8640 C.2    98  ILE98       0.2591
     13  O        -68.4970  -54.2740    8.9370 O.2    98  ILE98      -0.2718
     14  CB       -66.3480  -52.5440    6.9810 C.3    98  ILE98       0.0266
     15  CG1      -64.9050  -52.0400    7.0510 C.3    98  ILE98       0.0019
     16  CG2      -67.3170  -51.5110    7.5180 C.3    98  ILE98       0.0020
     17  CD1      -64.6070  -50.9220    6.0970 C.3    98  ILE98       0.0001
     18  N        -68.4680  -54.7680    6.7390 N.am   99  ILE99      -0.1980
     19  CA       -69.8440  -55.2630    6.7020 C.3    99  ILE99       0.1595
     20  C        -69.9710  -56.2420    7.8540 C.2    99  ILE99       0.2287
     21  O        -70.8170  -56.1060    8.7230 O.2    99  ILE99      -0.2864
     22  CB       -70.1480  -56.0780    5.4230 C.3    99  ILE99       0.0276
     23  CG1      -69.6530  -55.3520    4.1640 C.3    99  ILE99       0.0022
     24  CG2      -71.6330  -56.3630    5.3360 C.3    99  ILE99       0.0022
     25  CD1      -70.2930  -54.0170    3.8720 C.3    99  ILE99       0.0001
     26  N        -69.8040  -54.5230   11.3460 N.3   102  TYR102     -0.1227
     27  CA       -70.9800  -53.7110   11.5860 C.3   102  TYR102      0.1736
     28  C        -72.1620  -54.5950   11.9680 C.2   102  TYR102      0.2596
     29  O        -72.7320  -54.4700   13.0630 O.2   102  TYR102     -0.2718
     30  CB       -71.2990  -52.9210   10.3170 C.3   102  TYR102      0.0548
     31  CG       -72.3830  -51.8750   10.4320 C.ar  102  TYR102     -0.0200
     32  CD1      -72.0650  -50.5360   10.6770 C.ar  102  TYR102     -0.0009
     33  CD2      -73.7280  -52.2120   10.2490 C.ar  102  TYR102     -0.0009
     34  CE1      -73.0650  -49.5520   10.7290 C.ar  102  TYR102      0.0417
     35  CE2      -74.7400  -51.2370   10.3010 C.ar  102  TYR102      0.0417
     36  CZ       -74.4000  -49.9130   10.5380 C.ar  102  TYR102      0.1957
     37  OH       -75.3790  -48.9360   10.5710 O.3   102  TYR102     -0.2866
     38  N        -72.5030  -55.5070   11.0640 N.am  103  THR103     -0.1953
     39  CA       -73.6200  -56.4230   11.2520 C.3   103  THR103      0.1897
     40  C        -73.3370  -57.4630   12.3100 C.2   103  THR103      0.2313
     41  O        -73.9810  -58.5060   12.3520 O.2   103  THR103     -0.2863
     42  CB       -73.9540  -57.1610    9.9390 C.3   103  THR103      0.1794
     43  OG1      -72.8680  -58.0240    9.5860 O.3   103  THR103     -0.2208
     44  CG2      -74.1800  -56.1560    8.8020 C.3   103  THR103      0.0378
     45  N        -73.7160  -54.2740   16.0060 N.3   106  TYR106     -0.1241
     46  CA       -74.7060  -53.2090   16.0110 C.3   106  TYR106      0.1605
     47  C        -75.8010  -53.5330   17.0060 C.2   106  TYR106      0.2264
     48  O        -76.8320  -52.8650   17.0350 O.2   106  TYR106     -0.2867
     49  CB       -75.3180  -53.0050   14.6270 C.3   106  TYR106      0.0534
     50  CG       -75.3690  -51.5480   14.2290 C.ar  106  TYR106     -0.0201
     51  CD1      -74.1900  -50.8060   14.1080 C.ar  106  TYR106     -0.0009
     52  CD2      -76.5870  -50.9020   13.9840 C.ar  106  TYR106     -0.0009
     53  CE1      -74.2120  -49.4550   13.7600 C.ar  106  TYR106      0.0417
     54  CE2      -76.6250  -49.5450   13.6310 C.ar  106  TYR106      0.0417
     55  CZ       -75.4330  -48.8300   13.5250 C.ar  106  TYR106      0.1957
     56  OH       -75.4560  -47.4850   13.2180 O.3   106  TYR106     -0.2866
     57  N        -69.9370  -44.3020   16.1210 N.3   116  ASN116     -0.1240
     58  CA       -70.5160  -43.0360   15.7560 C.3   116  ASN116      0.1653
     59  C        -69.4650  -41.9160   15.7690 C.2   116  ASN116      0.2266
     60  O        -69.5110  -40.9740   14.9820 O.2   116  ASN116     -0.2867
     61  CB       -71.6850  -42.6990   16.6600 C.3   116  ASN116      0.1155
     62  CG       -73.0020  -43.1400   16.0910 C.2   116  ASN116      0.2627
     63  OD1      -73.2480  -44.3200   15.8590 O.2   116  ASN116     -0.2716
     64  ND2      -73.8710  -42.1730   15.8510 N.am  116  ASN116     -0.0877
     65  N        -68.2130  -42.3930   12.3840 N.3   119  GLU119     -0.1231
     66  CA       -69.1350  -41.9700   11.3480 C.3   119  GLU119      0.1699
     67  C        -69.1810  -40.4480   11.3110 C.2   119  GLU119      0.2592
     68  O        -69.2440  -39.8400   10.2380 O.2   119  GLU119     -0.2718
     69  CB       -70.5260  -42.5540   11.6200 C.3   119  GLU119      0.0402
     70  CG       -70.5090  -44.0690   11.8370 C.3   119  GLU119      0.1161
     71  CD       -71.8970  -44.6670   12.1550 C.2   119  GLU119      0.3649
     72  OE1      -72.6430  -44.0620   12.9670 O.co2 119  GLU119     -0.2457
     73  OE2      -72.2260  -45.7490   11.6060 O.co2 119  GLU119     -0.2457
     74  N        -69.1330  -39.8330   12.4840 N.am  120  ASN120     -0.1974
     75  CA       -69.1760  -38.3820   12.5600 C.3   120  ASN120      0.1688
     76  C        -68.0850  -37.7920   11.6970 C.2   120  ASN120      0.2292
     77  O        -68.2990  -36.8000   11.0080 O.2   120  ASN120     -0.2864
     78  CB       -68.9870  -37.8980   14.0000 C.3   120  ASN120      0.1181
     79  CG       -70.2210  -38.0990   14.8660 C.2   120  ASN120      0.2629
     80  OD1      -70.1520  -37.9470   16.0880 O.2   120  ASN120     -0.2716
     81  ND2      -71.3510  -38.4310   14.2450 N.am  120  ASN120     -0.0877
     82  N        -66.8230  -38.9770    9.0290 N.3   122  TYR122     -0.1227
     83  CA       -67.1800  -39.0850    7.6270 C.3   122  TYR122      0.1736
     84  C        -68.1920  -38.0130    7.2730 C.2   122  TYR122      0.2595
     85  O        -68.2320  -37.5420    6.1380 O.2   122  TYR122     -0.2718
     86  CB       -67.7510  -40.4650    7.3090 C.3   122  TYR122      0.0548
     87  CG       -66.7900  -41.6350    7.5350 C.ar  122  TYR122     -0.0200
     88  CD1      -66.9410  -42.4920    8.6340 C.ar  122  TYR122     -0.0009
     89  CD2      -65.7580  -41.9130    6.6250 C.ar  122  TYR122     -0.0009
     90  CE1      -66.0990  -43.6000    8.8140 C.ar  122  TYR122      0.0417
     91  CE2      -64.9040  -43.0180    6.7980 C.ar  122  TYR122      0.0417
     92  CZ       -65.0840  -43.8580    7.8980 C.ar  122  TYR122      0.1957
     93  OH       -64.2570  -44.9570    8.0790 O.3   122  TYR122     -0.2866
     94  N        -69.0060  -37.6210    8.2440 N.am  123  ILE123     -0.1980
     95  CA       -70.0070  -36.5890    8.0220 C.3   123  ILE123      0.1595
     96  C        -69.3940  -35.1810    7.9960 C.2   123  ILE123      0.2287
     97  O        -69.9100  -34.2790    7.3410 O.2   123  ILE123     -0.2864
     98  CB       -71.0990  -36.6560    9.1050 C.3   123  ILE123      0.0276
     99  CG1      -71.7540  -38.0390    9.0800 C.3   123  ILE123      0.0022
    100  CG2      -72.1370  -35.5720    8.8700 C.3   123  ILE123      0.0022
    101  CD1      -72.8650  -38.2090   10.0860 C.3   123  ILE123      0.0001
    102  N        -75.9140  -34.9420    7.8520 N.3   149  LYS149     -0.1245
    103  CA       -76.1420  -36.3380    8.2300 C.3   149  LYS149      0.1561
    104  C        -76.9770  -36.9790    7.1300 C.2   149  LYS149      0.2260
    105  O        -76.8460  -38.1690    6.8380 O.2   149  LYS149     -0.2867
    106  CB       -76.9060  -36.4480    9.5540 C.3   149  LYS149      0.0271
    107  CG       -76.1780  -35.9650   10.7950 C.3   149  LYS149      0.0035
    108  CD       -76.8120  -36.6000   12.0520 C.3   149  LYS149      0.0206
    109  CE       -76.4130  -35.8960   13.3690 C.3   149  LYS149      0.1093
    110  NZ       -76.9880  -34.5110   13.5370 N.3   149  LYS149     -0.1314
    111  N        -74.7950  -37.6230    3.9930 N.3   152  ALA152     -0.1231
    112  CA       -73.9290  -38.7370    4.3350 C.3   152  ALA152      0.1694
    113  C        -74.6540  -40.0720    4.1840 C.2   152  ALA152      0.2592
    114  O        -74.2250  -40.9360    3.4260 O.2   152  ALA152     -0.2718
    115  CB       -73.4110  -38.5830    5.7590 C.3   152  ALA152      0.0304
    116  N        -75.7640  -40.2330    4.8880 N.am  153  ASN153     -0.1974
    117  CA       -76.5020  -41.4820    4.8310 C.3   153  ASN153      0.1688
    118  C        -77.2540  -41.7440    3.5300 C.2   153  ASN153      0.2292
    119  O        -77.4340  -42.8980    3.1210 O.2   153  ASN153     -0.2864
    120  CB       -77.4310  -41.5700    6.0360 C.3   153  ASN153      0.1181
    121  CG       -76.6660  -41.7620    7.3250 C.2   153  ASN153      0.2629
    122  OD1      -76.9330  -41.1030    8.3200 O.2   153  ASN153     -0.2716
    123  ND2      -75.6970  -42.6790    7.3070 N.am  153  ASN153     -0.0877
    124  N        -74.4650  -42.9830    1.3360 N.3   156  ASN156     -0.1240
    125  CA       -74.0250  -44.3210    1.6890 C.3   156  ASN156      0.1653
    126  C        -75.0200  -45.4070    1.2820 C.2   156  ASN156      0.2266
    127  O        -74.6400  -46.5310    0.9610 O.2   156  ASN156     -0.2867
    128  CB       -73.7300  -44.4060    3.1830 C.3   156  ASN156      0.1155
    129  CG       -73.0800  -45.7320    3.5780 C.2   156  ASN156      0.2627
    130  OD1      -72.4710  -46.4240    2.7510 O.2   156  ASN156     -0.2716
    131  ND2      -73.1940  -46.0820    4.8570 N.am  156  ASN156     -0.0877
    132  N        -74.2050  -48.4840   -1.0060 N.3   160  THR160     -0.1218
    133  CA       -74.3940  -49.7930   -0.3970 C.3   160  THR160      0.1862
    134  C        -75.4500  -50.7270   -0.9770 C.2   160  THR160      0.2287
    135  O        -75.2240  -51.9330   -1.0710 O.2   160  THR160     -0.2866
    136  CB       -74.6990  -49.6270    1.1010 C.3   160  THR160      0.1770
    137  OG1      -73.5650  -49.0520    1.7540 O.3   160  THR160     -0.2211
    138  CG2      -75.0180  -50.9490    1.7410 C.3   160  THR160      0.0375
@<TRIPOS>BOND
     1   135   134    2
     2   132   133    1
     3   134   133    1
     4   133   136    1
     5   127   126    2
     6   136   138    1
     7   136   137    1
     8   126   125    1
     9   124   125    1
    10     5     6    1
    11     5     2    1
    12     6     7    1
    13   125   128    1
    14     8     7    2
    15     7     9   am
    16   130   129    2
    17     1     2    1
    18     2     3    1
    19   119   118    2
    20   128   129    1
    21   114   113    2
    22     3     4    2
    23   118   117    1
    24   129   131   am
    25    25    23    1
    26   111   112    1
    27    23    22    1
    28   113   112    1
    29   113   116   am
    30   112   115    1
    31   117   116    1
    32   117   120    1
    33    24    22    1
    34    22    19    1
    35   120   121    1
    36    17    15    1
    37    85    84    2
    38    89    91   ar
    39    89    87   ar
    40    19    18    1
    41    19    20    1
    42    18    12   am
    43    91    92   ar
    44   105   104    2
    45    14    15    1
    46    14    16    1
    47    14    11    1
    48   104   103    1
    49    10    11    1
    50    84    83    1
    51    84    94   am
    52   123   121   am
    53    86    87    1
    54    86    83    1
    55   121   122    2
    56    97    96    2
    57    87    88   ar
    58    83    82    1
    59    11    12    1
    60   102   103    1
    61    20    21    2
    62    12    13    2
    63    92    93    1
    64    92    90   ar
    65    96    95    1
    66    95    94    1
    67    95    98    1
    68   103   106    1
    69    88    90   ar
    70    44    42    1
    71   100    98    1
    72    99    98    1
    73    99   101    1
    74   106   107    1
    75    43    42    1
    76    42    39    1
    77    68    67    2
    78    33    35   ar
    79    33    31   ar
    80    35    36   ar
    81    30    31    1
    82    30    27    1
    83    31    32   ar
    84    36    37    1
    85    36    34   ar
    86    32    34   ar
    87   107   108    1
    88    77    76    2
    89    38    39    1
    90    38    28   am
    91    39    40    1
    92    67    66    1
    93    67    74   am
    94    26    27    1
    95    66    69    1
    96    66    65    1
    97    27    28    1
    98    73    71   ar
    99    69    70    1
   100    76    75    1
   101    70    71    1
   102    28    29    2
   103   108   109    1
   104    71    72   ar
   105    40    41    2
   106    74    75    1
   107    75    78    1
   108    56    55    1
   109   109   110    1
   110    55    54   ar
   111    55    53   ar
   112    54    52   ar
   113    53    51   ar
   114    52    50   ar
   115    78    79    1
   116    51    50   ar
   117    50    49    1
   118    81    79   am
   119    49    46    1
   120    79    80    2
   121    60    59    2
   122    58    59    1
   123    58    57    1
   124    58    61    1
   125    64    62   am
   126    63    62    2
   127    45    46    1
   128    46    47    1
   129    62    61    1
   130    47    48    2
