@<TRIPOS>MOLECULE
tmp/2gc0A00.pdb
 170 163 0 0 0
SMALL
GASTEIGER

@<TRIPOS>ATOM
      1  N          0.2340  -21.2620    7.5170 N.3    26  ARG26      -0.1245
      2  CA         0.5790  -20.7810    8.8580 C.3    26  ARG26       0.1563
      3  C         -0.5920  -20.9620    9.7990 C.2    26  ARG26       0.2260
      4  O         -1.6490  -20.3570    9.6090 O.2    26  ARG26      -0.2867
      5  CB         1.0150  -19.3130    8.8480 C.3    26  ARG26       0.0307
      6  CG         2.5090  -19.0800    9.0220 C.3    26  ARG26       0.0489
      7  CD         3.2490  -19.1190    7.6980 C.3    26  ARG26       0.2205
      8  NE         3.6630  -20.4710    7.3410 N.pl3  26  ARG26      -0.0865
      9  CZ         4.8720  -20.9780    7.5730 C.cat  26  ARG26       0.5346
     10  NH1        5.8120  -20.2470    8.1650 N.pl3  26  ARG26       0.1354
     11  NH2        5.1400  -22.2220    7.2060 N.pl3  26  ARG26       0.1354
     12  N         -3.1690  -18.0720    7.9250 N.3    53  TYR53      -0.1241
     13  CA        -3.0680  -17.7980    6.4930 C.3    53  TYR53       0.1605
     14  C         -2.3950  -18.8910    5.6730 C.2    53  TYR53       0.2264
     15  O         -1.6370  -19.7100    6.1950 O.2    53  TYR53      -0.2867
     16  CB        -2.4200  -16.4270    6.2130 C.3    53  TYR53       0.0534
     17  CG        -1.0080  -16.2600    6.7050 C.ar   53  TYR53      -0.0201
     18  CD1        0.0700  -16.3330    5.8220 C.ar   53  TYR53      -0.0009
     19  CD2       -0.7520  -16.0090    8.0530 C.ar   53  TYR53      -0.0009
     20  CE1        1.3890  -16.1700    6.2770 C.ar   53  TYR53       0.0417
     21  CE2        0.5530  -15.8360    8.5210 C.ar   53  TYR53       0.0417
     22  CZ         1.6120  -15.9190    7.6260 C.ar   53  TYR53       0.1957
     23  OH         2.8880  -15.7390    8.0890 O.3    53  TYR53      -0.2866
     24  N         -0.3010  -19.3280    1.7630 N.3    55  VAL55      -0.1245
     25  CA         0.4010  -18.6290    0.6960 C.3    55  VAL55       0.1561
     26  C          0.5720  -19.5860   -0.5040 C.2    55  VAL55       0.2260
     27  O          0.9340  -20.7490   -0.3300 O.2    55  VAL55      -0.2867
     28  CB         1.7760  -18.0680    1.1840 C.3    55  VAL55       0.0252
     29  CG1        2.5150  -17.3260    0.0600 C.3    55  VAL55       0.0019
     30  CG2        1.5940  -17.1440    2.3970 C.3    55  VAL55       0.0019
     31  N          2.9350  -14.2140   -5.4600 N.3    70  ALA70      -0.1245
     32  CA         2.2650  -15.0670   -4.5080 C.3    70  ALA70       0.1562
     33  C          0.9250  -14.4670   -4.0970 C.2    70  ALA70       0.2260
     34  O          0.7990  -13.2540   -3.8840 O.2    70  ALA70      -0.2867
     35  CB         3.1490  -15.2650   -3.2880 C.3    70  ALA70       0.0290
     36  N         -1.9590  -14.5470   -1.0210 N.3    72  THR72      -0.1218
     37  CA        -2.1870  -14.9370    0.3700 C.3    72  THR72       0.1862
     38  C         -3.6750  -14.9440    0.6540 C.2    72  THR72       0.2287
     39  O         -4.3900  -14.0080    0.2700 O.2    72  THR72      -0.2866
     40  CB        -1.4810  -13.9880    1.3620 C.3    72  THR72       0.1770
     41  OG1       -0.0850  -13.9490    1.0640 O.3    72  THR72      -0.2211
     42  CG2       -1.6850  -14.4300    2.8410 C.3    72  THR72       0.0375
     43  N         -0.3460  -11.5580    9.1170 N.3    86  THR86      -0.1203
     44  CA         0.8380  -12.3070    8.6680 C.3    86  THR86       0.1994
     45  C          2.0380  -12.0140    9.5840 C.2    86  THR86       0.2618
     46  O          2.1230  -10.9420   10.1920 O.2    86  THR86      -0.2717
     47  CB         1.2250  -11.9590    7.2050 C.3    86  THR86       0.1784
     48  OG1        1.5380  -10.5580    7.1060 O.3    86  THR86      -0.2211
     49  CG2        0.1070  -12.3360    6.2150 C.3    86  THR86       0.0376
     50  N          2.9620  -12.9650    9.6890 N.am   87  LYS87      -0.1965
     51  CA         4.1710  -12.7640   10.4870 C.3    87  LYS87       0.1728
     52  C          4.8220  -11.4040   10.2340 C.2    87  LYS87       0.2617
     53  O          5.1570  -10.6830   11.1710 O.2    87  LYS87      -0.2715
     54  CB         5.1820  -13.8820   10.2340 C.3    87  LYS87       0.0311
     55  CG         4.8690  -15.1740   10.9700 C.3    87  LYS87       0.0038
     56  CD         5.8000  -16.2840   10.5030 C.3    87  LYS87       0.0206
     57  CE         5.8910  -17.3920   11.5260 C.3    87  LYS87       0.1093
     58  NZ         6.7610  -18.5120   11.0710 N.3    87  LYS87      -0.1314
     59  N          4.9860  -11.0490    8.9660 N.am   88  GLY88      -0.1940
     60  CA         5.6150   -9.7870    8.6220 C.3    88  GLY88       0.2014
     61  C          7.1120   -9.9540    8.4730 C.2    88  GLY88       0.2638
     62  O          7.7350  -10.7770    9.1490 O.2    88  GLY88      -0.2714
     63  N          7.6870   -9.1770    7.5690 N.am   89  HIS89      -0.1973
     64  CA         9.1070   -9.2670    7.2820 C.3    89  HIS89       0.1656
     65  C          9.5940   -8.0180    6.5820 C.2    89  HIS89       0.2291
     66  O          8.8100   -7.2730    5.9780 O.2    89  HIS89      -0.2864
     67  CB         9.4120  -10.4850    6.3930 C.3    89  HIS89       0.0771
     68  CG         8.7190  -10.4490    5.0660 C.ar   89  HIS89       0.0820
     69  ND1        7.4310  -10.9080    4.8900 N.ar   89  HIS89      -0.2267
     70  CD2        9.1240   -9.9900    3.8560 C.ar   89  HIS89       0.1154
     71  CE1        7.0750  -10.7450    3.6280 C.ar   89  HIS89       0.1986
     72  NE2        8.0830  -10.1850    2.9800 N.ar   89  HIS89      -0.2212
     73  N         12.5960   -7.4060    3.5820 N.3    91  HIS91      -0.1241
     74  CA        13.2560   -8.2640    2.6060 C.3    91  HIS91       0.1621
     75  C         14.7130   -8.4580    3.0020 C.2    91  HIS91       0.2264
     76  O         15.2880   -7.5980    3.6750 O.2    91  HIS91      -0.2867
     77  CB        13.0990   -7.7000    1.1950 C.3    91  HIS91       0.0745
     78  CG        11.6750   -7.6750    0.7320 C.ar   91  HIS91       0.0817
     79  ND1       11.1400   -6.6280    0.0170 N.ar   91  HIS91      -0.2268
     80  CD2       10.6650   -8.5610    0.9140 C.ar   91  HIS91       0.1154
     81  CE1        9.8690   -6.8780   -0.2440 C.ar   91  HIS91       0.1986
     82  NE2        9.5550   -8.0430    0.2960 N.ar   91  HIS91      -0.2212
     83  N          7.8720   -3.8520   -3.3000 N.3    98  GLU98      -0.1245
     84  CA         6.8610   -4.8740   -3.5330 C.3    98  GLU98       0.1567
     85  C          5.5470   -4.2030   -3.8830 C.2    98  GLU98       0.2260
     86  O          5.2860   -3.0760   -3.4590 O.2    98  GLU98      -0.2867
     87  CB         6.6980   -5.7450   -2.2860 C.3    98  GLU98       0.0388
     88  CG         5.7500   -6.9180   -2.4760 C.3    98  GLU98       0.1160
     89  CD         6.0430   -8.0480   -1.5240 C.2    98  GLU98       0.3649
     90  OE1        5.5230   -9.1560   -1.7410 O.co2  98  GLU98      -0.2457
     91  OE2        6.8070   -7.8320   -0.5670 O.co2  98  GLU98      -0.2457
     92  N          1.3420   -4.9680   -3.9220 N.3   100  TYR100     -0.1241
     93  CA         0.1940   -5.7830   -3.4980 C.3   100  TYR100      0.1605
     94  C         -1.0740   -5.3520   -4.2290 C.2   100  TYR100      0.2264
     95  O         -1.3530   -4.1520   -4.3880 O.2   100  TYR100     -0.2867
     96  CB        -0.0540   -5.6240   -1.9960 C.3   100  TYR100      0.0534
     97  CG         0.8420   -6.3910   -1.0540 C.ar  100  TYR100     -0.0201
     98  CD1        2.2290   -6.1610   -1.0040 C.ar  100  TYR100     -0.0009
     99  CD2        0.3020   -7.3230   -0.1740 C.ar  100  TYR100     -0.0009
    100  CE1        3.0420   -6.8760   -0.1140 C.ar  100  TYR100      0.0417
    101  CE2        1.1020   -8.0230    0.7180 C.ar  100  TYR100      0.0417
    102  CZ         2.4600   -7.8060    0.7430 C.ar  100  TYR100      0.1957
    103  OH         3.2180   -8.5180    1.6410 O.3   100  TYR100     -0.2866
    104  N          6.6620   -5.2250    6.1480 N.3   137  HIS137     -0.1241
    105  CA         5.2200   -5.2320    5.8700 C.3   137  HIS137      0.1621
    106  C          4.5060   -6.4400    6.4460 C.2   137  HIS137      0.2264
    107  O          4.9800   -7.5710    6.3380 O.2   137  HIS137     -0.2867
    108  CB         4.9450   -5.1100    4.3600 C.3   137  HIS137      0.0745
    109  CG         5.8790   -5.9090    3.5080 C.ar  137  HIS137      0.0817
    110  ND1        7.1920   -5.5440    3.3010 N.ar  137  HIS137     -0.2268
    111  CD2        5.6910   -7.0490    2.8040 C.ar  137  HIS137      0.1154
    112  CE1        7.7740   -6.4280    2.5120 C.ar  137  HIS137      0.1986
    113  NE2        6.8860   -7.3530    2.2000 N.ar  137  HIS137     -0.2212
    114  N          0.3270   -7.8430    6.6720 N.3   139  THR139     -0.1218
    115  CA        -1.0760   -7.6360    6.3060 C.3   139  THR139      0.1862
    116  C         -2.0000   -8.0920    7.4250 C.2   139  THR139      0.2287
    117  O         -1.6700   -9.0110    8.1790 O.2   139  THR139     -0.2866
    118  CB        -1.4400   -8.3650    5.0160 C.3   139  THR139      0.1770
    119  OG1       -0.8880   -9.6890    5.0570 O.3   139  THR139     -0.2211
    120  CG2       -0.8940   -7.6210    3.8140 C.3   139  THR139      0.0375
    121  N         -5.1130  -11.3890   -1.3270 N.3   149  PHE149     -0.1241
    122  CA        -4.3590  -10.4360   -2.1070 C.3   149  PHE149      0.1605
    123  C         -3.2590  -11.1340   -2.8870 C.2   149  PHE149      0.2264
    124  O         -2.8650  -12.2630   -2.5680 O.2   149  PHE149     -0.2867
    125  CB        -3.7910   -9.3090   -1.2150 C.3   149  PHE149      0.0534
    126  CG        -2.9710   -9.8090   -0.0500 C.ar  149  PHE149     -0.0203
    127  CD1       -3.5340   -9.9250    1.2140 C.ar  149  PHE149     -0.0042
    128  CD2       -1.6450  -10.1810   -0.2250 C.ar  149  PHE149     -0.0042
    129  CE1       -2.8010  -10.3960    2.2860 C.ar  149  PHE149     -0.0003
    130  CE2       -0.9010  -10.6410    0.8430 C.ar  149  PHE149     -0.0003
    131  CZ        -1.4830  -10.7480    2.1050 C.ar  149  PHE149     -0.0000
    132  N          0.7050  -10.6000   -4.2700 N.3   151  ALA151     -0.1245
    133  CA         1.9390   -9.8480   -4.0920 C.3   151  ALA151      0.1562
    134  C          2.9320  -10.1640   -5.2070 C.2   151  ALA151      0.2260
    135  O          3.1280  -11.3260   -5.5730 O.2   151  ALA151     -0.2867
    136  CB         2.5450  -10.1240   -2.7070 C.3   151  ALA151      0.0290
    137  N          6.9030   -9.3300   -6.2950 N.3   153  TYR153     -0.1241
    138  CA         8.1380   -8.9000   -5.6550 C.3   153  TYR153      0.1605
    139  C          9.3660   -9.4080   -6.3880 C.2   153  TYR153      0.2264
    140  O          9.3120  -10.4620   -7.0300 O.2   153  TYR153     -0.2867
    141  CB         8.1810   -9.3270   -4.1800 C.3   153  TYR153      0.0534
    142  CG         7.9210  -10.7950   -3.9030 C.ar  153  TYR153     -0.0201
    143  CD1        6.6210  -11.3080   -3.9110 C.ar  153  TYR153     -0.0009
    144  CD2        8.9740  -11.6620   -3.5980 C.ar  153  TYR153     -0.0009
    145  CE1        6.3740  -12.6580   -3.6360 C.ar  153  TYR153      0.0417
    146  CE2        8.7420  -13.0130   -3.3160 C.ar  153  TYR153      0.0417
    147  CZ         7.4360  -13.5000   -3.3440 C.ar  153  TYR153      0.1957
    148  OH         7.1990  -14.8250   -3.0690 O.3   153  TYR153     -0.2866
    149  N         13.2330  -13.0710    2.3000 N.3   159  HIS159     -0.1241
    150  CA        12.3640  -12.8110    3.4470 C.3   159  HIS159      0.1621
    151  C         13.2240  -12.7510    4.7080 C.2   159  HIS159      0.2264
    152  O         13.9520  -13.7000    5.0130 O.2   159  HIS159     -0.2867
    153  CB        11.3220  -13.9260    3.5960 C.3   159  HIS159      0.0745
    154  CG        10.2230  -13.8880    2.5750 C.ar  159  HIS159      0.0817
    155  ND1       10.2880  -14.5740    1.3810 N.ar  159  HIS159     -0.2268
    156  CD2        9.0180  -13.2710    2.5870 C.ar  159  HIS159      0.1154
    157  CE1        9.1780  -14.3680    0.6940 C.ar  159  HIS159      0.1986
    158  NE2        8.3900  -13.5800    1.4040 N.ar  159  HIS159     -0.2212
    159  N         12.7190  -12.3890    8.6140 N.3   161  TYR161     -0.1241
    160  CA        11.6880  -12.4930    9.6520 C.3   161  TYR161      0.1605
    161  C         12.1640  -12.1960   11.0660 C.2   161  TYR161      0.2264
    162  O         11.3490  -11.8730   11.9320 O.2   161  TYR161     -0.2867
    163  CB        11.0800  -13.8940    9.6570 C.3   161  TYR161      0.0534
    164  CG        10.2210  -14.2090    8.4650 C.ar  161  TYR161     -0.0201
    165  CD1       10.7120  -15.0040    7.4320 C.ar  161  TYR161     -0.0009
    166  CD2        8.9130  -13.7300    8.3720 C.ar  161  TYR161     -0.0009
    167  CE1        9.9370  -15.3110    6.3340 C.ar  161  TYR161      0.0417
    168  CE2        8.1240  -14.0330    7.2670 C.ar  161  TYR161      0.0417
    169  CZ         8.6490  -14.8250    6.2540 C.ar  161  TYR161      0.1957
    170  OH         7.9000  -15.1420    5.1560 O.3   161  TYR161     -0.2866
@<TRIPOS>BOND
     1   140   139    2
     2   139   138    1
     3   137   138    1
     4   138   141    1
     5   135   134    2
     6    31    32    1
     7   134   133    1
     8    32    33    1
     9    32    35    1
    10    95    94    2
    11   132   133    1
    12    94    93    1
    13   141   142    1
    14    33    34    2
    15   133   136    1
    16    92    93    1
    17   143   142   ar
    18   143   145   ar
    19   142   144   ar
    20    85    84    1
    21    85    86    2
    22   145   147   ar
    23   144   146   ar
    24    84    83    1
    25    84    87    1
    26    93    96    1
    27   147   146   ar
    28   147   148    1
    29   123   124    2
    30   123   122    1
    31    88    87    1
    32    88    89    1
    33   122   121    1
    34   122   125    1
    35    96    97    1
    36    90    89   ar
    37    89    91   ar
    38   125   126    1
    39    97    98   ar
    40    97    99   ar
    41    36    37    1
    42    98   100   ar
    43    26    27    2
    44    26    25    1
    45    81    79   ar
    46    81    82   ar
    47   128   126   ar
    48   128   130   ar
    49    99   101   ar
    50   100   102   ar
    51   126   127   ar
    52    79    78   ar
    53    29    28    1
    54    39    38    2
    55    82    80   ar
    56    37    38    1
    57    37    40    1
    58   157   155   ar
    59   157   158   ar
    60    25    28    1
    61    25    24    1
    62   101   102   ar
    63    78    80   ar
    64    78    77    1
    65   102   103    1
    66   130   131   ar
    67    41    40    1
    68    28    30    1
    69    77    74    1
    70   127   129   ar
    71    40    42    1
    72   155   154   ar
    73   158   156   ar
    74   131   129   ar
    75   113   112   ar
    76   113   111   ar
    77   149   150    1
    78   112   110   ar
    79   154   156   ar
    80   154   153    1
    81    74    75    1
    82    74    73    1
    83   111   109   ar
    84    72    71   ar
    85    72    70   ar
    86    75    76    2
    87   110   109   ar
    88   150   153    1
    89   150   151    1
    90   109   108    1
    91    71    69   ar
    92   120   118    1
    93    70    68   ar
    94   108   105    1
    95   151   152    2
    96    69    68   ar
    97   118   119    1
    98   118   115    1
    99    68    67    1
   100   170   169    1
   101    14    15    2
   102    14    13    1
   103    18    20   ar
   104    18    17   ar
   105   105   104    1
   106   105   106    1
   107    66    65    2
   108    16    13    1
   109    16    17    1
   110    49    47    1
   111   169   167   ar
   112   169   168   ar
   113    20    22   ar
   114   115   114    1
   115   115   116    1
   116   167   165   ar
   117   107   106    2
   118    67    64    1
   119    13    12    1
   120    65    64    1
   121    17    19   ar
   122    48    47    1
   123    47    44    1
   124    11     9    1
   125   168   166   ar
   126    64    63    1
   127     8     9    2
   128     8     7    1
   129   116   117    2
   130   165   164   ar
   131     1     2    1
   132    63    61   am
   133     9    10    1
   134    22    23    1
   135    22    21   ar
   136     7     6    1
   137    19    21   ar
   138   166   164   ar
   139   164   163    1
   140    61    60    1
   141    61    62    2
   142   159   160    1
   143    60    59    1
   144    44    43    1
   145    44    45    1
   146     5     2    1
   147     5     6    1
   148     2     3    1
   149    59    52   am
   150    45    50   am
   151    45    46    2
   152     4     3    2
   153   160   163    1
   154   160   161    1
   155    50    51    1
   156    54    51    1
   157    54    55    1
   158    52    51    1
   159    52    53    2
   160    56    55    1
   161    56    57    1
   162   161   162    2
   163    58    57    1
