@<TRIPOS>MOLECULE
tmp/2gc3B00.pdb
 142 137 0 0 0
SMALL
GASTEIGER

@<TRIPOS>ATOM
      1  N         -6.2410  -30.9800    9.7860 N.3    53  TYR53      -0.1241
      2  CA        -6.5010  -29.5480    9.8420 C.3    53  TYR53       0.1605
      3  C         -5.4320  -28.7530   10.5900 C.2    53  TYR53       0.2264
      4  O         -4.6720  -29.2980   11.3920 O.2    53  TYR53      -0.2867
      5  CB        -7.9100  -29.2510   10.3900 C.3    53  TYR53       0.0534
      6  CG        -8.2110  -29.7330   11.7990 C.ar   53  TYR53      -0.0201
      7  CD1       -8.2620  -28.8320   12.8680 C.ar   53  TYR53      -0.0009
      8  CD2       -8.4870  -31.0740   12.0560 C.ar   53  TYR53      -0.0009
      9  CE1       -8.5680  -29.2640   14.1660 C.ar   53  TYR53       0.0417
     10  CE2       -8.7810  -31.5210   13.3390 C.ar   53  TYR53       0.0417
     11  CZ        -8.8270  -30.6080   14.3860 C.ar   53  TYR53       0.1957
     12  OH        -9.1100  -31.0520   15.6520 O.3    53  TYR53      -0.2866
     13  N         -5.1780  -24.8590   12.6140 N.3    55  VAL55      -0.1245
     14  CA        -5.9050  -23.7270   13.1710 C.3    55  VAL55       0.1561
     15  C         -4.9630  -22.5370   13.3870 C.2    55  VAL55       0.2260
     16  O         -3.8450  -22.7010   13.8640 O.2    55  VAL55      -0.2867
     17  CB        -6.6050  -24.1100   14.5080 C.3    55  VAL55       0.0252
     18  CG1       -7.3400  -22.9190   15.1140 C.3    55  VAL55       0.0019
     19  CG2       -7.5680  -25.2540   14.2950 C.3    55  VAL55       0.0019
     20  N        -10.6260  -17.4770   15.0080 N.3    70  ALA70      -0.1245
     21  CA        -9.6500  -18.4070   14.4440 C.3    70  ALA70       0.1562
     22  C        -10.0550  -18.8110   13.0360 C.2    70  ALA70       0.2260
     23  O        -11.2380  -19.0040   12.7620 O.2    70  ALA70      -0.2867
     24  CB        -9.5330  -19.6450   15.3290 C.3    70  ALA70       0.0290
     25  N         -9.5630  -21.9100   10.1660 N.3    72  THR72      -0.1218
     26  CA        -9.1910  -23.3130   10.0710 C.3    72  THR72       0.1862
     27  C         -9.0260  -23.7060    8.6090 C.2    72  THR72       0.2287
     28  O         -9.8010  -23.2840    7.7410 O.2    72  THR72      -0.2866
     29  CB       -10.2140  -24.2150   10.7960 C.3    72  THR72       0.1770
     30  OG1      -10.3110  -23.8170   12.1740 O.3    72  THR72      -0.2211
     31  CG2       -9.8320  -25.6900   10.7220 C.3    72  THR72       0.0375
     32  N        -13.0130  -31.9700   11.6210 N.3    86  THR86      -0.1203
     33  CA       -12.4320  -31.5250   12.8910 C.3    86  THR86       0.1994
     34  C        -12.8560  -32.4480   14.0410 C.2    86  THR86       0.2618
     35  O        -13.8870  -33.1150   13.9660 O.2    86  THR86      -0.2717
     36  CB       -12.7630  -30.0370   13.2220 C.3    86  THR86       0.1784
     37  OG1      -14.1820  -29.8600   13.3280 O.3    86  THR86      -0.2211
     38  CG2      -12.2080  -29.1020   12.1470 C.3    86  THR86       0.0376
     39  N        -12.0530  -32.5020   15.1030 N.am   87  LYS87      -0.1965
     40  CA       -12.4040  -33.3180   16.2670 C.3    87  LYS87       0.1728
     41  C        -13.8540  -33.0470   16.7260 C.2    87  LYS87       0.2617
     42  O        -14.6260  -33.9820   16.9660 O.2    87  LYS87      -0.2715
     43  CB       -11.4210  -33.0700   17.4220 C.3    87  LYS87       0.0311
     44  CG       -10.0490  -33.7070   17.2440 C.3    87  LYS87       0.0038
     45  CD        -9.1730  -33.4820   18.4820 C.3    87  LYS87       0.0206
     46  CE        -7.8430  -34.2150   18.3520 C.3    87  LYS87       0.1093
     47  NZ        -6.9510  -34.0740   19.5420 N.3    87  LYS87      -0.1314
     48  N        -14.2200  -31.7670   16.8150 N.am   88  GLY88      -0.1940
     49  CA       -15.5590  -31.3670   17.2540 C.3    88  GLY88       0.2014
     50  C        -15.6110  -31.2230   18.7660 C.2    88  GLY88       0.2638
     51  O        -14.8620  -31.8870   19.4750 O.2    88  GLY88      -0.2714
     52  N        -16.4910  -30.3570   19.2610 N.am   89  HIS89      -0.1973
     53  CA       -16.5750  -30.0710   20.7000 C.3    89  HIS89       0.1656
     54  C        -17.8660  -29.3590   21.1010 C.2    89  HIS89       0.2291
     55  O        -18.4690  -28.6480   20.2970 O.2    89  HIS89      -0.2864
     56  CB       -15.3800  -29.2110   21.1520 C.3    89  HIS89       0.0771
     57  CG       -15.2650  -27.9080   20.4200 C.ar   89  HIS89       0.0820
     58  ND1      -14.5180  -27.7640   19.2710 N.ar   89  HIS89      -0.2267
     59  CD2      -15.8210  -26.6960   20.6610 C.ar   89  HIS89       0.1154
     60  CE1      -14.6090  -26.5190   18.8410 C.ar   89  HIS89       0.1986
     61  NE2      -15.3940  -25.8500   19.6680 N.ar   89  HIS89      -0.2212
     62  N        -21.4870  -19.7050   18.6130 N.3    98  GLU98      -0.1245
     63  CA       -20.3640  -19.4610   17.7110 C.3    98  GLU98       0.1567
     64  C        -20.8830  -19.0360   16.3370 C.2    98  GLU98       0.2260
     65  O        -21.9950  -19.3920   15.9540 O.2    98  GLU98      -0.2867
     66  CB       -19.4630  -20.7030   17.5980 C.3    98  GLU98       0.0388
     67  CG       -18.0690  -20.4070   16.9990 C.3    98  GLU98       0.1160
     68  CD       -17.0290  -21.4860   17.3030 C.2    98  GLU98       0.3649
     69  OE1      -17.2580  -22.3250   18.1980 O.co2  98  GLU98      -0.2457
     70  OE2      -15.9700  -21.4910   16.6450 O.co2  98  GLU98      -0.2457
     71  N        -19.5500  -19.0220   12.2440 N.3   100  TYR100     -0.1241
     72  CA       -18.5510  -19.4520   11.2490 C.3   100  TYR100      0.1605
     73  C        -18.8050  -18.7740    9.9160 C.2   100  TYR100      0.2264
     74  O        -19.9540  -18.6730    9.4880 O.2   100  TYR100     -0.2867
     75  CB       -18.6510  -20.9540   11.0100 C.3   100  TYR100      0.0534
     76  CG       -18.0530  -21.8690   12.0620 C.ar  100  TYR100     -0.0201
     77  CD1      -18.6000  -21.9650   13.3480 C.ar  100  TYR100     -0.0009
     78  CD2      -16.9670  -22.6890   11.7440 C.ar  100  TYR100     -0.0009
     79  CE1      -18.0570  -22.8420   14.2940 C.ar  100  TYR100      0.0417
     80  CE2      -16.4200  -23.5620   12.6750 C.ar  100  TYR100      0.0417
     81  CZ       -16.9640  -23.6320   13.9470 C.ar  100  TYR100      0.1957
     82  OH       -16.4120  -24.5100   14.8520 O.3   100  TYR100     -0.2866
     83  N        -20.3330  -29.0500   17.7220 N.3   137  HIS137     -0.1241
     84  CA       -20.1380  -28.7130   16.3080 C.3   137  HIS137      0.1621
     85  C        -18.8350  -29.2630   15.7480 C.2   137  HIS137      0.2264
     86  O        -17.7870  -29.2060   16.3970 O.2   137  HIS137     -0.2867
     87  CB       -20.2490  -27.1970   16.0630 C.3   137  HIS137      0.0745
     88  CG       -19.6000  -26.3600   17.1180 C.ar  137  HIS137      0.0817
     89  ND1      -20.1480  -26.1840   18.3710 N.ar  137  HIS137     -0.2268
     90  CD2      -18.4480  -25.6460   17.1070 C.ar  137  HIS137      0.1154
     91  CE1      -19.3580  -25.4080   19.0920 C.ar  137  HIS137      0.1986
     92  NE2      -18.3200  -25.0680   18.3480 N.ar  137  HIS137     -0.2212
     93  N        -12.2670  -21.6550    6.6030 N.3   149  PHE149     -0.1241
     94  CA       -13.3150  -20.8770    7.2520 C.3   149  PHE149      0.1605
     95  C        -12.7830  -20.1130    8.4590 C.2   149  PHE149      0.2264
     96  O        -11.7270  -20.4370    8.9870 O.2   149  PHE149     -0.2867
     97  CB       -14.4870  -21.7800    7.6770 C.3   149  PHE149      0.0534
     98  CG       -14.1000  -22.9030    8.6080 C.ar  149  PHE149     -0.0203
     99  CD1      -13.8490  -24.1690    8.1090 C.ar  149  PHE149     -0.0042
    100  CD2      -14.0030  -22.6930    9.9850 C.ar  149  PHE149     -0.0042
    101  CE1      -13.5040  -25.2140    8.9530 C.ar  149  PHE149     -0.0003
    102  CE2      -13.6630  -23.7330   10.8360 C.ar  149  PHE149     -0.0003
    103  CZ       -13.4160  -24.9970   10.3170 C.ar  149  PHE149     -0.0000
    104  N        -13.8680  -18.6130   12.3610 N.3   151  ALA151     -0.1245
    105  CA       -14.8020  -18.7720   13.4670 C.3   151  ALA151      0.1562
    106  C        -14.5900  -17.6980   14.5260 C.2   151  ALA151      0.2260
    107  O        -13.4530  -17.3730   14.8780 O.2   151  ALA151     -0.2867
    108  CB       -14.6700  -20.1580   14.0780 C.3   151  ALA151      0.0290
    109  N        -15.8760  -16.7620   18.4280 N.3   153  TYR153     -0.1241
    110  CA       -16.5260  -17.4090   19.5750 C.3   153  TYR153      0.1605
    111  C        -16.2260  -16.6500   20.8630 C.2   153  TYR153      0.2264
    112  O        -15.2110  -15.9480   20.9500 O.2   153  TYR153     -0.2867
    113  CB       -16.1190  -18.8890   19.6960 C.3   153  TYR153      0.0534
    114  CG       -14.6150  -19.1460   19.5380 C.ar  153  TYR153     -0.0201
    115  CD1      -14.0050  -19.0600   18.2820 C.ar  153  TYR153     -0.0009
    116  CD2      -13.8130  -19.4760   20.6350 C.ar  153  TYR153     -0.0009
    117  CE1      -12.6400  -19.2930   18.1140 C.ar  153  TYR153      0.0417
    118  CE2      -12.4320  -19.7150   20.4820 C.ar  153  TYR153      0.0417
    119  CZ       -11.8630  -19.6180   19.2050 C.ar  153  TYR153      0.1957
    120  OH       -10.5200  -19.8360   18.9930 O.3   153  TYR153     -0.2866
    121  N        -13.4610  -25.3320   25.5650 N.3   159  HIS159     -0.1241
    122  CA       -13.6320  -26.4840   24.6870 C.3   159  HIS159      0.1621
    123  C        -13.9130  -27.7330   25.5220 C.2   159  HIS159      0.2264
    124  O        -13.2290  -27.9940   26.5160 O.2   159  HIS159     -0.2867
    125  CB       -12.3810  -26.6890   23.8190 C.3   159  HIS159      0.0745
    126  CG       -12.1530  -25.6050   22.8070 C.ar  159  HIS159      0.0817
    127  ND1      -11.4540  -24.4520   23.0940 N.ar  159  HIS159     -0.2268
    128  CD2      -12.5270  -25.5020   21.5080 C.ar  159  HIS159      0.1154
    129  CE1      -11.4140  -23.6830   22.0210 C.ar  159  HIS159      0.1986
    130  NE2      -12.0580  -24.2960   21.0450 N.ar  159  HIS159     -0.2212
    131  N        -14.0650  -31.6050   24.5990 N.3   161  TYR161     -0.1241
    132  CA       -13.8690  -32.6520   23.5930 C.3   161  TYR161      0.1605
    133  C        -14.3370  -34.0360   24.0460 C.2   161  TYR161      0.2264
    134  O        -14.7670  -34.8430   23.2180 O.2   161  TYR161     -0.2867
    135  CB       -12.3940  -32.7300   23.1760 C.3   161  TYR161      0.0534
    136  CG       -11.8710  -31.4800   22.5100 C.ar  161  TYR161     -0.0201
    137  CD1      -11.1120  -30.5480   23.2230 C.ar  161  TYR161     -0.0009
    138  CD2      -12.1340  -31.2270   21.1620 C.ar  161  TYR161     -0.0009
    139  CE1      -10.6280  -29.3940   22.6040 C.ar  161  TYR161      0.0417
    140  CE2      -11.6610  -30.0780   20.5370 C.ar  161  TYR161      0.0417
    141  CZ       -10.9120  -29.1680   21.2620 C.ar  161  TYR161      0.1957
    142  OH       -10.4540  -28.0400   20.6360 O.3   161  TYR161     -0.2866
@<TRIPOS>BOND
     1    93    94    1
     2    94    97    1
     3    94    95    1
     4    97    98    1
     5    28    27    2
     6    99    98   ar
     7    99   101   ar
     8    95    96    2
     9    98   100   ar
    10    27    26    1
    11   101   103   ar
    12    74    73    2
    13     1     2    1
    14     2     5    1
    15     2     3    1
    16    73    72    1
    17   100   102   ar
    18    26    25    1
    19    26    29    1
    20   103   102   ar
    21     5     6    1
    22     3     4    2
    23    31    29    1
    24    29    30    1
    25    75    72    1
    26    75    76    1
    27    72    71    1
    28    32    33    1
    29    78    76   ar
    30    78    80   ar
    31     6     8   ar
    32     6     7   ar
    33     8    10   ar
    34    76    77   ar
    35    38    36    1
    36   104   105    1
    37    13    14    1
    38    80    81   ar
    39    23    22    2
    40     7     9   ar
    41    33    36    1
    42    33    34    1
    43    22    21    1
    44    14    15    1
    45    14    17    1
    46    36    37    1
    47    10    11   ar
    48    77    79   ar
    49    15    16    2
    50   105   108    1
    51   105   106    1
    52    81    79   ar
    53    81    82    1
    54    35    34    2
    55    34    39   am
    56     9    11   ar
    57    19    17    1
    58    11    12    1
    59    21    20    1
    60    21    24    1
    61    17    18    1
    62   106   107    2
    63    39    40    1
    64    85    84    1
    65    85    86    2
    66    65    64    2
    67    87    84    1
    68    87    88    1
    69    40    41    1
    70    40    43    1
    71    84    83    1
    72    64    63    1
    73    70    68   ar
    74    41    48   am
    75    41    42    2
    76    48    49    1
    77    67    68    1
    78    67    66    1
    79    90    88   ar
    80    90    92   ar
    81    88    89   ar
    82    44    43    1
    83    44    45    1
    84    49    50    1
    85    68    69   ar
    86    66    63    1
    87    63    62    1
    88   117   115   ar
    89   117   119   ar
    90   115   114   ar
    91    92    91   ar
    92    46    45    1
    93    46    47    1
    94    89    91   ar
    95   109   110    1
    96    50    52   am
    97    50    51    2
    98    60    58   ar
    99    60    61   ar
   100   120   119    1
   101   119   118   ar
   102    52    53    1
   103    58    57   ar
   104   114   113    1
   105   114   116   ar
   106   110   113    1
   107   110   111    1
   108    61    59   ar
   109    55    54    2
   110    57    59   ar
   111    57    56    1
   112   118   116   ar
   113   140   138   ar
   114   140   141   ar
   115   142   141    1
   116    53    54    1
   117    53    56    1
   118   111   112    2
   119   130   128   ar
   120   130   129   ar
   121   138   136   ar
   122   141   139   ar
   123   128   126   ar
   124   129   127   ar
   125   136   135    1
   126   136   137   ar
   127   139   137   ar
   128   126   127   ar
   129   126   125    1
   130   135   132    1
   131   134   133    2
   132   132   133    1
   133   132   131    1
   134   125   122    1
   135   122   123    1
   136   122   121    1
   137   123   124    2
