@<TRIPOS>MOLECULE
tmp/2gc8B00.pdb
 156 147 0 0 0
SMALL
GASTEIGER

@<TRIPOS>ATOM
      1  N         -1.9290   47.4550  119.7710 N.3   188  PHE188     -0.1241
      2  CA        -2.6740   48.5440  119.1400 C.3   188  PHE188      0.1605
      3  C         -1.8310   49.6210  118.4570 C.2   188  PHE188      0.2264
      4  O         -2.3720   50.5190  117.8120 O.2   188  PHE188     -0.2867
      5  CB        -3.6280   49.1890  120.1580 C.3   188  PHE188      0.0534
      6  CG        -4.7300   48.2690  120.6350 C.ar  188  PHE188     -0.0203
      7  CD1       -4.8010   47.8780  121.9680 C.ar  188  PHE188     -0.0042
      8  CD2       -5.6990   47.7950  119.7490 C.ar  188  PHE188     -0.0042
      9  CE1       -5.8210   47.0250  122.4210 C.ar  188  PHE188     -0.0003
     10  CE2       -6.7250   46.9410  120.1910 C.ar  188  PHE188     -0.0003
     11  CZ        -6.7830   46.5580  121.5320 C.ar  188  PHE188     -0.0000
     12  N         -2.4500   46.6060  110.5010 N.3   192  PRO192     -0.2116
     13  CA        -2.4470   45.1590  110.2540 C.3   192  PRO192      0.1372
     14  C         -1.1420   44.6550  109.6310 C.2   192  PRO192      0.2244
     15  O         -0.6760   43.5610  109.9490 O.2   192  PRO192     -0.2868
     16  CB        -3.6450   44.9710  109.3270 C.3   192  PRO192      0.0268
     17  CG        -4.5990   46.0140  109.8200 C.3   192  PRO192      0.0207
     18  CD        -3.6860   47.2220  109.9870 C.3   192  PRO192      0.0892
     19  N          1.5950   44.5170  112.1720 N.3   195  ARG195     -0.1245
     20  CA         1.3500   43.4270  113.1110 C.3   195  ARG195      0.1563
     21  C          1.9210   42.1340  112.5370 C.2   195  ARG195      0.2260
     22  O          2.5340   41.3460  113.2530 O.2   195  ARG195     -0.2867
     23  CB        -0.1500   43.2620  113.3830 C.3   195  ARG195      0.0307
     24  CG        -0.4880   42.2280  114.4660 C.3   195  ARG195      0.0489
     25  CD        -1.9910   41.8920  114.5090 C.3   195  ARG195      0.2205
     26  NE        -2.2870   40.7990  115.4390 N.pl3 195  ARG195     -0.0865
     27  CZ        -2.4370   40.9460  116.7550 C.cat 195  ARG195      0.5346
     28  NH1       -2.6910   39.8850  117.5170 N.pl3 195  ARG195      0.1354
     29  NH2       -2.3540   42.1530  117.3120 N.pl3 195  ARG195      0.1354
     30  N         -3.4830   42.6740  123.0060 N.3   311  ASN311     -0.1240
     31  CA        -4.4970   43.6200  122.5410 C.3   311  ASN311      0.1653
     32  C         -5.6690   43.4760  123.5050 C.2   311  ASN311      0.2266
     33  O         -6.5990   42.7150  123.2490 O.2   311  ASN311     -0.2867
     34  CB        -4.9810   43.2790  121.1270 C.3   311  ASN311      0.1155
     35  CG        -3.9140   43.4850  120.0760 C.2   311  ASN311      0.2627
     36  OD1       -2.8850   42.8200  120.0870 O.2   311  ASN311     -0.2716
     37  ND2       -4.1600   44.4100  119.1550 N.am  311  ASN311     -0.0877
     38  N         -4.9120   35.0490  116.6500 N.3   360  SER360     -0.1202
     39  CA        -4.8980   36.0230  117.7360 C.3   360  SER360      0.2020
     40  C         -5.6570   37.2420  117.2300 C.2   360  SER360      0.2619
     41  O         -5.4140   37.7160  116.1170 O.2   360  SER360     -0.2717
     42  CB        -3.4580   36.3860  118.1100 C.3   360  SER360      0.2103
     43  OG        -2.7330   36.8440  116.9840 O.3   360  SER360     -0.2182
     44  N         -6.5740   37.7460  118.0490 N.am  361  CYS361     -0.1969
     45  CA        -7.4110   38.8720  117.6500 C.3   361  CYS361      0.1712
     46  C         -8.2230   38.4050  116.4500 C.2   361  CYS361      0.2296
     47  O         -8.4580   39.1620  115.5060 O.2   361  CYS361     -0.2864
     48  CB        -6.5720   40.0940  117.2680 C.3   361  CYS361      0.0983
     49  SG        -5.8390   40.9920  118.6640 S.3   361  CYS361     -0.0798
     50  N         -7.4390   36.6360  114.0420 N.3   363  SER363     -0.1217
     51  CA        -6.7250   36.6610  112.7730 C.3   363  SER363      0.1889
     52  C         -5.4800   35.7870  112.7570 C.2   363  SER363      0.2288
     53  O         -4.9900   35.3560  113.8000 O.2   363  SER363     -0.2866
     54  CB        -6.3180   38.0950  112.4440 C.3   363  SER363      0.2089
     55  OG        -7.4250   38.9710  112.5450 O.3   363  SER363     -0.2183
     56  N         -2.2550   39.7650  106.7800 N.3   379  LEU379     -0.1245
     57  CA        -3.1780   39.3130  107.8120 C.3   379  LEU379      0.1561
     58  C         -4.5840   39.0410  107.2650 C.2   379  LEU379      0.2260
     59  O         -5.1530   39.8520  106.5330 O.2   379  LEU379     -0.2867
     60  CB        -3.2530   40.3580  108.9230 C.3   379  LEU379      0.0270
     61  CG        -3.6510   39.8520  110.3060 C.3   379  LEU379      0.0019
     62  CD1       -2.5650   38.9320  110.8470 C.3   379  LEU379      0.0001
     63  CD2       -3.8330   41.0290  111.2350 C.3   379  LEU379      0.0001
     64  N         -8.4370   36.3980  108.1370 N.3   381  ARG381     -0.1245
     65  CA        -9.2420   35.7450  109.1760 C.3   381  ARG381      0.1563
     66  C        -10.3620   34.9770  108.5030 C.2   381  ARG381      0.2260
     67  O        -10.6060   35.1590  107.3120 O.2   381  ARG381     -0.2867
     68  CB        -9.8740   36.7740  110.1280 C.3   381  ARG381      0.0307
     69  CG       -10.8870   37.7340  109.4700 C.3   381  ARG381      0.0489
     70  CD       -11.7990   38.4190  110.5050 C.3   381  ARG381      0.2205
     71  NE       -12.7590   37.4820  111.0840 N.pl3 381  ARG381     -0.0865
     72  CZ       -13.3020   37.6050  112.2920 C.cat 381  ARG381      0.5346
     73  NH1      -12.9820   38.6300  113.0640 N.pl3 381  ARG381      0.1354
     74  NH2      -14.1550   36.6940  112.7360 N.pl3 381  ARG381      0.1354
     75  N        -22.3060   39.6490  108.9220 N.3   389  ARG389     -0.1245
     76  CA       -22.6100   41.0470  109.2040 C.3   389  ARG389      0.1563
     77  C        -22.8620   41.8410  107.9250 C.2   389  ARG389      0.2260
     78  O        -23.6560   42.7880  107.9190 O.2   389  ARG389     -0.2867
     79  CB       -21.4900   41.6700  110.0340 C.3   389  ARG389      0.0307
     80  CG       -21.5160   41.1530  111.4570 C.3   389  ARG389      0.0489
     81  CD       -20.3620   41.6180  112.3020 C.3   389  ARG389      0.2205
     82  NE       -20.4560   41.0180  113.6260 N.pl3 389  ARG389     -0.0865
     83  CZ       -19.5350   41.1320  114.5750 C.cat 389  ARG389      0.5346
     84  NH1      -18.4290   41.8330  114.3560 N.pl3 389  ARG389      0.1354
     85  NH2      -19.7230   40.5350  115.7440 N.pl3 389  ARG389      0.1354
     86  N        -15.1500   48.7520  107.7760 N.3   405  GLY405     -0.1210
     87  CA       -14.0170   48.5270  108.6500 C.3   405  GLY405      0.1956
     88  C        -13.2560   47.3010  108.1810 C.2   405  GLY405      0.2611
     89  O        -12.0220   47.2860  108.1700 O.2   405  GLY405     -0.2717
     90  N        -13.9870   46.2670  107.7770 N.am  406  ASN406     -0.1974
     91  CA       -13.3300   45.0560  107.3080 C.3   406  ASN406      0.1688
     92  C        -12.5570   45.2460  106.0100 C.2   406  ASN406      0.2292
     93  O        -11.4820   44.6760  105.8490 O.2   406  ASN406     -0.2864
     94  CB       -14.3340   43.9110  107.1710 C.3   406  ASN406      0.1181
     95  CG       -14.6620   43.2900  108.5040 C.2   406  ASN406      0.2629
     96  OD1      -13.7890   43.1770  109.3650 O.2   406  ASN406     -0.2716
     97  ND2      -15.9130   42.8750  108.6870 N.am  406  ASN406     -0.0877
     98  N         -9.3480   47.0960  107.1560 N.3   409  MET409     -0.1230
     99  CA        -8.4130   46.2580  107.8950 C.3   409  MET409      0.1702
    100  C         -7.9520   45.0000  107.1560 C.2   409  MET409      0.2592
    101  O         -6.8270   44.5370  107.3640 O.2   409  MET409     -0.2718
    102  CB        -9.0160   45.8750  109.2500 C.3   409  MET409      0.0401
    103  CG        -9.2510   47.0700  110.1670 C.3   409  MET409      0.0596
    104  SD        -7.7420   48.0360  110.4310 S.3   409  MET409     -0.1393
    105  CE        -7.0510   47.1780  111.8260 C.3   409  MET409      0.0692
    106  N         -8.8090   44.4410  106.3050 N.am  410  TYR410     -0.1976
    107  CA        -8.4410   43.2400  105.5620 C.3   410  TYR410      0.1639
    108  C         -8.4060   43.4520  104.0590 C.2   410  TYR410      0.2290
    109  O         -8.6430   42.5210  103.2860 O.2   410  TYR410     -0.2864
    110  CB        -9.3900   42.0890  105.8880 C.3   410  TYR410      0.0560
    111  CG        -9.3610   41.7090  107.3420 C.ar  410  TYR410     -0.0198
    112  CD1      -10.2330   42.3010  108.2480 C.ar  410  TYR410     -0.0009
    113  CD2       -8.4210   40.8000  107.8220 C.ar  410  TYR410     -0.0009
    114  CE1      -10.1730   42.0010  109.6010 C.ar  410  TYR410      0.0417
    115  CE2       -8.3470   40.4930  109.1760 C.ar  410  TYR410      0.0417
    116  CZ        -9.2300   41.1000  110.0610 C.ar  410  TYR410      0.1957
    117  OH        -9.1720   40.8090  111.4040 O.3   410  TYR410     -0.2866
    118  N        -15.6060   51.1820  112.7560 N.3   441  GLN441     -0.1231
    119  CA       -14.7650   51.0120  113.9350 C.3   441  GLN441      0.1698
    120  C        -13.4120   50.3960  113.6540 C.2   441  GLN441      0.2592
    121  O        -13.3110   49.3980  112.9440 O.2   441  GLN441     -0.2718
    122  CB       -15.4580   50.1250  114.9690 C.3   441  GLN441      0.0381
    123  CG       -16.3470   50.8340  115.9510 C.3   441  GLN441      0.0905
    124  CD       -16.6260   49.9730  117.1720 C.2   441  GLN441      0.2608
    125  OE1      -17.4320   50.3310  118.0280 O.2   441  GLN441     -0.2717
    126  NE2      -15.9500   48.8310  117.2590 N.am  441  GLN441     -0.0878
    127  N        -12.3820   50.9900  114.2470 N.am  442  ILE442     -0.1966
    128  CA       -11.0170   50.4990  114.1240 C.3   442  ILE442      0.1727
    129  C        -10.3950   50.5640  115.5130 C.2   442  ILE442      0.2616
    130  O        -10.2350   51.6450  116.0800 O.2   442  ILE442     -0.2715
    131  CB       -10.1790   51.3520  113.1520 C.3   442  ILE442      0.0290
    132  CG1      -10.7900   51.2910  111.7490 C.3   442  ILE442      0.0022
    133  CG2       -8.7470   50.8500  113.1260 C.3   442  ILE442      0.0023
    134  CD1      -10.1040   52.2010  110.7460 C.3   442  ILE442      0.0001
    135  N        -10.0540   49.4020  116.0600 N.am  443  TYR443     -0.1960
    136  CA        -9.4720   49.3270  117.3980 C.3   443  TYR443      0.1771
    137  C        -10.3760   50.0190  118.4180 C.2   443  TYR443      0.2620
    138  O         -9.9060   50.7650  119.2730 O.2   443  TYR443     -0.2715
    139  CB        -8.0730   49.9610  117.4110 C.3   443  TYR443      0.0574
    140  CG        -7.0170   49.1460  116.6880 C.ar  443  TYR443     -0.0198
    141  CD1       -5.7300   49.6490  116.4880 C.ar  443  TYR443     -0.0009
    142  CD2       -7.3020   47.8580  116.2180 C.ar  443  TYR443     -0.0009
    143  CE1       -4.7500   48.8890  115.8410 C.ar  443  TYR443      0.0417
    144  CE2       -6.3370   47.0960  115.5730 C.ar  443  TYR443      0.0417
    145  CZ        -5.0650   47.6120  115.3880 C.ar  443  TYR443      0.1957
    146  OH        -4.1170   46.8360  114.7650 O.3   443  TYR443     -0.2866
    147  N        -11.6790   49.7740  118.3030 N.am  444  GLY444     -0.1954
    148  CA       -12.6440   50.3480  119.2260 C.3   444  GLY444      0.1869
    149  C        -13.0400   51.7960  118.9870 C.2   444  GLY444      0.2309
    150  O        -14.0600   52.2510  119.5010 O.2   444  GLY444     -0.2863
    151  N        -11.6740   50.2490  122.7140 N.3   548  SER548     -0.1217
    152  CA       -12.9150   49.4780  122.7850 C.3   548  SER548      0.1889
    153  C        -13.7570   49.8370  124.0040 C.2   548  SER548      0.2288
    154  O        -13.2890   49.7620  125.1400 O.2   548  SER548     -0.2866
    155  CB       -12.6140   47.9800  122.7990 C.3   548  SER548      0.2089
    156  OG       -13.8170   47.2340  122.8860 O.3   548  SER548     -0.2183
@<TRIPOS>BOND
     1   109   108    2
     2   108   107    1
     3   107   110    1
     4   107   106    1
     5    93    92    2
     6   110   111    1
     7    92    91    1
     8   106   100   am
     9    59    58    2
    10    56    57    1
    11    98    99    1
    12   100   101    2
    13   100    99    1
    14    94    91    1
    15    94    95    1
    16    58    57    1
    17    91    90    1
    18    67    66    2
    19   111   113   ar
    20   111   112   ar
    21    86    87    1
    22    90    88   am
    23    57    60    1
    24   113   115   ar
    25    99   102    1
    26    78    77    2
    27    77    76    1
    28    64    65    1
    29    89    88    2
    30    88    87    1
    31   112   114   ar
    32    66    65    1
    33    95    97   am
    34    95    96    2
    35    75    76    1
    36    60    61    1
    37   115   116   ar
    38    65    68    1
    39    76    79    1
    40   102   103    1
    41    16    17    1
    42    16    13    1
    43    69    68    1
    44    69    70    1
    45   114   116   ar
    46    14    15    2
    47    14    13    1
    48    17    18    1
    49    18    12    1
    50    79    80    1
    51   116   117    1
    52   103   104    1
    53    13    12    1
    54    61    62    1
    55    61    63    1
    56   104   105    1
    57    70    71    1
    58   134   132    1
    59    71    72    2
    60    80    81    1
    61   132   131    1
    62    19    20    1
    63    72    74    1
    64    72    73    1
    65    81    82    1
    66    54    55    1
    67    54    51    1
    68    21    20    1
    69    21    22    2
    70   118   119    1
    71    52    51    1
    72    52    53    2
    73    51    50    1
    74   121   120    2
    75    20    23    1
    76   133   131    1
    77   131   128    1
    78    23    24    1
    79    82    83    2
    80   120   119    1
    81   120   127   am
    82   119   122    1
    83   128   127    1
    84   128   129    1
    85    84    83    1
    86    24    25    1
    87    25    26    1
    88    83    85    1
    89   146   145    1
    90   122   123    1
    91   145   144   ar
    92   145   143   ar
    93    26    27    2
    94    47    46    2
    95   129   135   am
    96   129   130    2
    97   144   142   ar
    98   143   141   ar
    99   123   124    1
   100   135   136    1
   101    41    40    2
   102   142   140   ar
   103    46    45    1
   104   141   140   ar
   105    38    39    1
   106   140   139    1
   107    27    29    1
   108    27    28    1
   109    43    42    1
   110   124   126   am
   111   124   125    2
   112    40    39    1
   113    40    44   am
   114    48    45    1
   115    48    49    1
   116   136   139    1
   117   136   137    1
   118    45    44    1
   119    39    42    1
   120     4     3    2
   121   147   137   am
   122   147   148    1
   123   137   138    2
   124     3     2    1
   125   149   148    1
   126   149   150    2
   127     2     1    1
   128     2     5    1
   129    37    35   am
   130     8    10   ar
   131     8     6   ar
   132    35    36    2
   133    35    34    1
   134     5     6    1
   135    10    11   ar
   136     6     7   ar
   137    34    31    1
   138    11     9   ar
   139     7     9   ar
   140    31    30    1
   141    31    32    1
   142   151   152    1
   143   152   155    1
   144   152   153    1
   145   155   156    1
   146    33    32    2
   147   153   154    2
