@<TRIPOS>MOLECULE
tmp/2gcdA00.pdb
 196 185 0 0 0
SMALL
GASTEIGER

@<TRIPOS>ATOM
      1  N         47.0700   53.8280   -5.7340 N.3    23  ILE23      -0.1231
      2  CA        45.8620   53.8120   -4.9000 C.3    23  ILE23       0.1692
      3  C         45.5870   55.1770   -4.2440 C.2    23  ILE23       0.2593
      4  O         44.5710   55.3780   -3.6130 O.2    23  ILE23      -0.2718
      5  CB        45.9280   52.7700   -3.8260 C.3    23  ILE23       0.0266
      6  CG1       47.1650   52.9540   -2.9720 C.3    23  ILE23       0.0019
      7  CG2       45.9280   51.4210   -4.4090 C.3    23  ILE23       0.0020
      8  CD1       47.2480   51.8940   -1.9840 C.3    23  ILE23       0.0001
      9  N         46.4800   56.1130   -4.3580 N.am   24  GLY24      -0.1942
     10  CA        46.1930   57.3740   -3.8160 C.3    24  GLY24       0.2014
     11  C         47.3640   58.1970   -4.2210 C.2    24  GLY24       0.2638
     12  O         48.3560   57.6440   -4.6970 O.2    24  GLY24      -0.2714
     13  N         47.2560   59.5160   -4.0960 N.am   25  HIS25      -0.1973
     14  CA        48.4430   60.3890   -4.2160 C.3    25  HIS25       0.1656
     15  C         48.1290   61.5990   -3.4290 C.2    25  HIS25       0.2291
     16  O         47.1190   61.5990   -2.7190 O.2    25  HIS25      -0.2864
     17  CB        48.6120   60.8660   -5.6350 C.3    25  HIS25       0.0771
     18  CG        47.3220   61.2580   -6.2280 C.ar   25  HIS25       0.0820
     19  ND1       46.5930   60.4020   -7.0290 N.ar   25  HIS25      -0.2267
     20  CD2       46.5640   62.3700   -6.0440 C.ar   25  HIS25       0.1154
     21  CE1       45.4600   61.0010   -7.3640 C.ar   25  HIS25       0.1986
     22  NE2       45.4190   62.1950   -6.7800 N.ar   25  HIS25      -0.2212
     23  N         53.4110   65.2890   -2.0150 N.3    28  PHE28      -0.1241
     24  CA        54.4350   64.2150   -2.1050 C.3    28  PHE28       0.1605
     25  C         54.4460   63.4220   -3.4520 C.2    28  PHE28       0.2264
     26  O         55.5030   63.3440   -4.1130 O.2    28  PHE28      -0.2867
     27  CB        54.3030   63.2690   -0.9060 C.3    28  PHE28       0.0534
     28  CG        52.8900   62.7600   -0.6770 C.ar   28  PHE28      -0.0203
     29  CD1       52.3750   61.6620   -1.4460 C.ar   28  PHE28      -0.0042
     30  CD2       52.0630   63.3630    0.3290 C.ar   28  PHE28      -0.0042
     31  CE1       51.0310   61.1800   -1.2380 C.ar   28  PHE28      -0.0003
     32  CE2       50.7090   62.8920    0.5680 C.ar   28  PHE28      -0.0003
     33  CZ        50.1920   61.7970   -0.2380 C.ar   28  PHE28      -0.0000
     34  N         50.7640   56.7460   -4.0420 N.3    31  VAL31      -0.1245
     35  CA        50.7970   55.6790   -3.1780 C.3    31  VAL31       0.1561
     36  C         50.2940   54.5150   -3.9940 C.2    31  VAL31       0.2260
     37  O         49.3470   54.6830   -4.6970 O.2    31  VAL31      -0.2867
     38  CB        49.9590   55.9020   -1.8880 C.3    31  VAL31       0.0252
     39  CG1       49.8590   54.5940   -1.0750 C.3    31  VAL31       0.0019
     40  CG2       50.6690   56.8420   -1.0250 C.3    31  VAL31       0.0019
     41  N         51.9590   48.5490    0.6880 N.3    44  ALA44      -0.1245
     42  CA        51.6330   49.8670    0.2150 C.3    44  ALA44       0.1562
     43  C         52.9720   50.5330    0.0750 C.2    44  ALA44       0.2260
     44  O         53.8780   50.3280    0.9430 O.2    44  ALA44      -0.2867
     45  CB        50.7490   50.5780    1.2000 C.3    44  ALA44       0.0290
     46  N         54.6640   54.3650   -0.8910 N.3    46  LYS46      -0.1245
     47  CA        54.5040   55.7400   -1.1080 C.3    46  LYS46       0.1561
     48  C         55.7890   56.2030   -1.7380 C.2    46  LYS46       0.2260
     49  O         56.7910   56.2670   -1.0790 O.2    46  LYS46      -0.2867
     50  CB        54.2450   56.4520    0.2340 C.3    46  LYS46       0.0271
     51  CG        53.9160   58.0150    0.0810 C.3    46  LYS46       0.0035
     52  CD        53.9490   58.7770    1.3670 C.3    46  LYS46       0.0206
     53  CE        53.9290   60.2210    1.0710 C.3    46  LYS46       0.1093
     54  NZ        54.3050   61.0760    2.2680 N.3    46  LYS46      -0.1314
     55  N         59.8820   62.6230    7.3590 N.3    65  GLU65      -0.1245
     56  CA        58.9050   61.5870    7.4430 C.3    65  GLU65       0.1567
     57  C         59.5280   60.1900    7.8260 C.2    65  GLU65       0.2260
     58  O         58.9070   59.3920    8.6180 O.2    65  GLU65      -0.2867
     59  CB        58.0980   61.5030    6.1830 C.3    65  GLU65       0.0388
     60  CG        56.9130   60.5660    6.4590 C.3    65  GLU65       0.1160
     61  CD        55.8110   60.5440    5.3950 C.2    65  GLU65       0.3649
     62  OE1       54.7720   59.8360    5.6150 O.co2  65  GLU65      -0.2457
     63  OE2       55.9560   61.2540    4.3530 O.co2  65  GLU65      -0.2457
     64  N         49.5900   52.8480   10.9930 N.3    78  ILE78      -0.1245
     65  CA        49.8790   52.0710    9.7980 C.3    78  ILE78       0.1561
     66  C         51.2940   51.6530    9.9960 C.2    78  ILE78       0.2260
     67  O         52.1200   52.5410   10.2840 O.2    78  ILE78      -0.2867
     68  CB        49.9260   52.9830    8.5490 C.3    78  ILE78       0.0252
     69  CG1       49.4380   52.2990    7.3360 C.3    78  ILE78       0.0019
     70  CG2       51.2890   53.1320    8.0380 C.3    78  ILE78       0.0019
     71  CD1       47.9500   51.9140    7.4850 C.3    78  ILE78       0.0001
     72  N         55.0900   50.2790    3.3840 N.3    94  MET94      -0.1230
     73  CA        54.1730   50.1480    4.5360 C.3    94  MET94       0.1702
     74  C         53.2230   48.9650    4.4430 C.2    94  MET94       0.2592
     75  O         53.0290   48.3820    3.3550 O.2    94  MET94      -0.2718
     76  CB        53.3170   51.3990    4.6480 C.3    94  MET94       0.0401
     77  CG        54.0890   52.6860    4.8860 C.3    94  MET94       0.0596
     78  SD        53.0010   54.0780    4.4590 S.3    94  MET94      -0.1393
     79  CE        54.3900   55.0840    3.8900 C.3    94  MET94       0.0692
     80  N         52.5680   48.6310    5.5510 N.am   95  GLU95      -0.1966
     81  CA        51.5910   47.5510    5.4310 C.3    95  GLU95       0.1733
     82  C         50.4630   48.0440    4.5510 C.2    95  GLU95       0.2616
     83  O         50.3070   49.2640    4.3260 O.2    95  GLU95      -0.2715
     84  CB        51.0610   47.0420    6.7760 C.3    95  GLU95       0.0429
     85  CG        49.9180   47.8870    7.3300 C.3    95  GLU95       0.1163
     86  CD        49.7060   47.6020    8.8010 C.2    95  GLU95       0.3649
     87  OE1       50.0360   48.4710    9.6580 O.co2  95  GLU95      -0.2457
     88  OE2       49.2530   46.4580    9.0710 O.co2  95  GLU95      -0.2457
     89  N         49.6260   47.1180    4.1450 N.am   96  TYR96      -0.1960
     90  CA        48.6070   47.4140    3.2090 C.3    96  TYR96       0.1771
     91  C         47.2260   47.2590    3.7770 C.2    96  TYR96       0.2620
     92  O         46.9290   46.2590    4.4530 O.2    96  TYR96      -0.2715
     93  CB        48.7660   46.4350    2.0770 C.3    96  TYR96       0.0574
     94  CG        47.7540   46.6660    1.0870 C.ar   96  TYR96      -0.0198
     95  CD1       47.7300   47.9090    0.3560 C.ar   96  TYR96      -0.0009
     96  CD2       46.7360   45.7110    0.8940 C.ar   96  TYR96      -0.0009
     97  CE1       46.7040   48.1700   -0.6550 C.ar   96  TYR96       0.0417
     98  CE2       45.7220   45.9470   -0.0900 C.ar   96  TYR96       0.0417
     99  CZ        45.7220   47.1770   -0.8180 C.ar   96  TYR96       0.1957
    100  OH        44.7420   47.3650   -1.7080 O.3    96  TYR96      -0.2866
    101  N         46.3350   48.1950    3.4820 N.am   97  CYS97      -0.1954
    102  CA        44.9280   47.9790    3.8970 C.3    97  CYS97       0.1843
    103  C         43.9230   47.9320    2.7560 C.2    97  CYS97       0.2625
    104  O         44.1880   48.4170    1.6610 O.2    97  CYS97      -0.2714
    105  CB        44.5120   49.0090    4.9100 C.3    97  CYS97       0.0997
    106  SG        45.7480   49.3460    6.2400 S.3    97  CYS97      -0.0797
    107  N         42.7680   47.3170    3.0070 N.am   98  LEU98      -0.1963
    108  CA        41.6400   47.4050    2.0580 C.3    98  LEU98       0.1728
    109  C         41.3970   48.8280    1.6070 C.2    98  LEU98       0.2617
    110  O         41.4540   49.0810    0.4040 O.2    98  LEU98      -0.2715
    111  CB        40.3560   46.8710    2.6640 C.3    98  LEU98       0.0311
    112  CG        40.3860   45.3230    2.6200 C.3    98  LEU98       0.0022
    113  CD1       39.6070   44.7640    1.3440 C.3    98  LEU98       0.0001
    114  CD2       41.8540   44.6640    2.7720 C.3    98  LEU98       0.0001
    115  N         41.1430   49.7560    2.5530 N.am   99  GLY99      -0.1940
    116  CA        40.9960   51.1630    2.2040 C.3    99  GLY99       0.2014
    117  C         40.6330   52.0550    3.3860 C.2    99  GLY99       0.2639
    118  O         40.7030   51.6070    4.5120 O.2    99  GLY99      -0.2714
    119  N         40.3330   53.3300    3.1270 N.am  100  SER100     -0.1949
    120  CA        40.0780   54.3100    4.1640 C.3   100  SER100      0.1924
    121  C         38.6190   54.3130    4.5590 C.2   100  SER100      0.2314
    122  O         37.7630   53.7920    3.8530 O.2   100  SER100     -0.2863
    123  CB        40.5290   55.7030    3.7430 C.3   100  SER100      0.2116
    124  OG        39.8320   56.1750    2.6040 O.3   100  SER100     -0.2180
    125  N         36.7900   56.9180    4.4520 N.3   102  SER102     -0.1202
    126  CA        36.1900   57.5910    3.2840 C.3   102  SER102      0.2020
    127  C         35.7350   56.6490    2.1950 C.2   102  SER102      0.2618
    128  O         34.6050   56.7860    1.6920 O.2   102  SER102     -0.2717
    129  CB        37.2100   58.3710    2.4970 C.3   102  SER102      0.2103
    130  OG        37.3730   59.5720    3.0890 O.3   102  SER102     -0.2182
    131  N         36.6650   55.7780    1.7410 N.am  103  ASP103     -0.1973
    132  CA        36.3350   54.7790    0.7110 C.3   103  ASP103      0.1709
    133  C         35.0890   54.0990    1.1950 C.2   103  ASP103      0.2293
    134  O         34.2070   53.8810    0.4210 O.2   103  ASP103     -0.2864
    135  CB        37.5150   53.7970    0.3640 C.3   103  ASP103      0.1436
    136  CG        38.8320   54.5660   -0.0050 C.2   103  ASP103      0.3671
    137  OD1       38.8110   55.6620   -0.6610 O.co2 103  ASP103     -0.2456
    138  OD2       39.9310   54.1450    0.4230 O.co2 103  ASP103     -0.2456
    139  N         32.2300   56.3570    0.3470 N.3   106  GLU106     -0.1245
    140  CA        32.0270   56.5890   -1.0720 C.3   106  GLU106      0.1567
    141  C         31.3210   55.3410   -1.7000 C.2   106  GLU106      0.2260
    142  O         30.3950   55.4680   -2.5120 O.2   106  GLU106     -0.2867
    143  CB        33.3360   56.8650   -1.7730 C.3   106  GLU106      0.0388
    144  CG        33.8630   58.3210   -1.8290 C.3   106  GLU106      0.1160
    145  CD        35.4660   58.3130   -2.1210 C.2   106  GLU106      0.3649
    146  OE1       35.8520   58.3970   -3.3480 O.co2 106  GLU106     -0.2457
    147  OE2       36.3510   58.1780   -1.1430 O.co2 106  GLU106     -0.2457
    148  N         39.4920   60.0810    5.6580 N.3   144  GLY144     -0.1210
    149  CA        40.4590   59.7090    4.6770 C.3   144  GLY144      0.1956
    150  C         41.7500   59.0970    5.1690 C.2   144  GLY144      0.2611
    151  O         42.4090   58.3910    4.4360 O.2   144  GLY144     -0.2717
    152  N         42.1640   59.4270    6.3710 N.am  145  ASN145     -0.1974
    153  CA        43.5030   59.0580    6.8200 C.3   145  ASN145      0.1688
    154  C         43.2740   57.9630    7.8670 C.2   145  ASN145      0.2292
    155  O         44.0990   57.7850    8.7130 O.2   145  ASN145     -0.2864
    156  CB        44.2120   60.2870    7.3740 C.3   145  ASN145      0.1181
    157  CG        44.7110   61.1720    6.2600 C.2   145  ASN145      0.2629
    158  OD1       44.7560   60.7070    5.0940 O.2   145  ASN145     -0.2716
    159  ND2       44.9960   62.4660    6.5560 N.am  145  ASN145     -0.0877
    160  N         42.6020   53.9710    8.0170 N.3   147  LEU147     -0.1245
    161  CA        42.6020   52.8030    7.1270 C.3   147  LEU147      0.1561
    162  C         42.0910   51.5630    7.8880 C.2   147  LEU147      0.2260
    163  O         42.2200   51.4550    9.1150 O.2   147  LEU147     -0.2867
    164  CB        44.0070   52.6480    6.6120 C.3   147  LEU147      0.0270
    165  CG        44.3410   53.8640    5.7200 C.3   147  LEU147      0.0019
    166  CD1       45.8110   54.1070    5.5880 C.3   147  LEU147      0.0001
    167  CD2       43.8720   53.6140    4.3210 C.3   147  LEU147      0.0001
    168  N         46.7430   56.7160    9.2750 N.3   157  GLY157     -0.1210
    169  CA        47.8070   56.8440    8.2900 C.3   157  GLY157      0.1956
    170  C         48.0710   58.2810    7.9380 C.2   157  GLY157      0.2611
    171  O         47.4440   59.2120    8.4820 O.2   157  GLY157     -0.2717
    172  N         48.9790   58.4720    7.0050 N.am  158  ASP158     -0.1973
    173  CA        49.4730   59.7590    6.6380 C.3   158  ASP158      0.1709
    174  C         50.0290   60.6260    7.7180 C.2   158  ASP158      0.2293
    175  O         49.3560   61.5010    8.2620 O.2   158  ASP158     -0.2864
    176  CB        48.4900   60.5810    5.8580 C.3   158  ASP158      0.1436
    177  CG        49.1950   61.6340    5.0860 C.2   158  ASP158      0.3671
    178  OD1       50.3540   61.9930    5.4380 O.co2 158  ASP158     -0.2456
    179  OD2       48.7000   62.0090    4.0370 O.co2 158  ASP158     -0.2456
    180  N         40.0460   49.6680   -6.4660 N.3   302  LYS302     -0.1231
    181  CA        41.0800   49.6570   -5.4050 C.3   302  LYS302      0.1693
    182  C         40.8300   48.5890   -4.3540 C.2   302  LYS302      0.2591
    183  O         41.7160   47.8470   -4.0240 O.2   302  LYS302     -0.2718
    184  CB        41.1140   50.9970   -4.6690 C.3   302  LYS302      0.0285
    185  CG        41.8870   52.0860   -5.3480 C.3   302  LYS302      0.0035
    186  CD        42.6210   52.9710   -4.3020 C.3   302  LYS302      0.0206
    187  CE        41.9270   54.3060   -3.9130 C.3   302  LYS302      0.1093
    188  NZ        40.5590   54.1010   -3.4050 N.3   302  LYS302     -0.1314
    189  N         39.5940   48.5280   -3.8490 N.am  303  ILE303     -0.1980
    190  CA        39.1700   47.6530   -2.7450 C.3   303  ILE303      0.1595
    191  C         39.3790   46.1370   -3.0140 C.2   303  ILE303      0.2287
    192  O         39.4460   45.3310   -2.0730 O.2   303  ILE303     -0.2864
    193  CB        37.6470   47.9310   -2.3270 C.3   303  ILE303      0.0276
    194  CG1       37.3120   49.4280   -2.0060 C.3   303  ILE303      0.0022
    195  CG2       37.2330   47.0510   -1.1900 C.3   303  ILE303      0.0022
    196  CD1       38.3450   50.2580   -1.1930 C.3   303  ILE303      0.0001
@<TRIPOS>BOND
     1    21    19   ar
     2    21    22   ar
     3    19    18   ar
     4    22    20   ar
     5   180   181    1
     6    18    20   ar
     7    18    17    1
     8     1     2    1
     9    17    14    1
    10   181   184    1
    11   181   182    1
    12   185   184    1
    13   185   186    1
    14     2     3    1
    15     2     5    1
    16    37    36    2
    17    12    11    2
    18     7     5    1
    19     9     3   am
    20     9    10    1
    21   182   183    2
    22   182   189   am
    23   186   187    1
    24     3     4    2
    25    11    13   am
    26    11    10    1
    27    14    13    1
    28    14    15    1
    29    26    25    2
    30    34    35    1
    31    36    35    1
    32   187   188    1
    33   189   190    1
    34     5     6    1
    35    25    24    1
    36    15    16    2
    37   146   145   ar
    38    35    38    1
    39   191   190    1
    40   191   192    2
    41     6     8    1
    42   190   193    1
    43   142   141    2
    44   193   194    1
    45   193   195    1
    46   145   144    1
    47   145   147   ar
    48    24    23    1
    49    24    27    1
    50   194   196    1
    51    38    39    1
    52    38    40    1
    53   144   143    1
    54   143   140    1
    55    48    47    1
    56    48    49    2
    57   100    99    1
    58   141   140    1
    59    29    31   ar
    60    29    28   ar
    61    31    33   ar
    62    47    46    1
    63    47    50    1
    64   140   139    1
    65    27    28    1
    66    99    97   ar
    67    99    98   ar
    68    28    30   ar
    69   137   136   ar
    70    97    95   ar
    71    33    32   ar
    72    98    96   ar
    73   136   135    1
    74   136   138   ar
    75    43    42    1
    76    43    44    2
    77    51    50    1
    78    51    52    1
    79    42    41    1
    80    42    45    1
    81    30    32   ar
    82    95    94   ar
    83   135   132    1
    84   110   109    2
    85   134   133    2
    86   132   133    1
    87   132   131    1
    88    96    94   ar
    89    53    52    1
    90    53    54    1
    91    94    93    1
    92   113   112    1
    93   109   108    1
    94   109   115   am
    95   104   103    2
    96   128   127    2
    97   131   127   am
    98   108   111    1
    99   108   107    1
   100    93    90    1
   101   127   126    1
   102   116   115    1
   103   116   117    1
   104   129   130    1
   105   129   126    1
   106   124   123    1
   107   112   111    1
   108   112   114    1
   109   103   107   am
   110   103   102    1
   111   119   117   am
   112   119   120    1
   113    90    91    1
   114    90    89    1
   115   126   125    1
   116    75    74    2
   117    72    73    1
   118   117   118    2
   119   101    91   am
   120   101   102    1
   121   123   120    1
   122    91    92    2
   123   122   121    2
   124    79    78    1
   125   102   105    1
   126   179   177   ar
   127    89    82   am
   128   120   121    1
   129   167   165    1
   130    83    82    2
   131    63    61   ar
   132   151   150    2
   133    74    73    1
   134    74    80   am
   135    78    77    1
   136    73    76    1
   137    82    81    1
   138    76    77    1
   139   149   150    1
   140   149   148    1
   141   105   106    1
   142   177   178   ar
   143   177   176    1
   144   158   157    2
   145   150   152   am
   146    61    62   ar
   147    61    60    1
   148    81    80    1
   149    81    84    1
   150   166   165    1
   151   165   164    1
   152   176   173    1
   153    59    60    1
   154    59    56    1
   155   157   159   am
   156   157   156    1
   157   152   153    1
   158   164   161    1
   159   173   172    1
   160   173   174    1
   161    84    85    1
   162   153   156    1
   163   153   154    1
   164   172   170   am
   165   161   162    1
   166   161   160    1
   167    85    86    1
   168    69    71    1
   169    69    68    1
   170    55    56    1
   171    56    57    1
   172   174   175    2
   173    57    58    2
   174   154   155    2
   175   162   163    2
   176   170   169    1
   177   170   171    2
   178    70    68    1
   179   169   168    1
   180    68    65    1
   181    86    88   ar
   182    86    87   ar
   183    65    66    1
   184    65    64    1
   185    66    67    2
