@<TRIPOS>MOLECULE
tmp/2gcgA01.pdb
 112 104 0 0 0
SMALL
GASTEIGER

@<TRIPOS>ATOM
      1  N         18.0490    7.2280   -2.1170 N.3    55  LEU55      -0.1245
      2  CA        17.6770    6.7840   -3.4420 C.3    55  LEU55       0.1561
      3  C         18.6650    5.8150   -4.0150 C.2    55  LEU55       0.2260
      4  O         18.3630    5.0820   -4.9510 O.2    55  LEU55      -0.2867
      5  CB        17.4530    7.9740   -4.3960 C.3    55  LEU55       0.0270
      6  CG        18.6260    8.9020   -4.7310 C.3    55  LEU55       0.0019
      7  CD1       19.3850    8.3970   -5.9750 C.3    55  LEU55       0.0001
      8  CD2       18.0490   10.2830   -4.9740 C.3    55  LEU55       0.0001
      9  N         14.4070    9.1760    1.6320 N.3    77  MET77      -0.1230
     10  CA        14.6220   10.6220    1.5330 C.3    77  MET77       0.1702
     11  C         14.7400   11.0780    0.0870 C.2    77  MET77       0.2593
     12  O         15.7870   11.5780   -0.3330 O.2    77  MET77      -0.2718
     13  CB        15.8910   11.0060    2.2820 C.3    77  MET77       0.0401
     14  CG        15.9440   12.4730    2.7180 C.3    77  MET77       0.0596
     15  SD        17.5330   12.7490    3.4960 S.3    77  MET77      -0.1393
     16  CE        18.0610   14.2710    2.6640 C.3    77  MET77       0.0692
     17  N         13.6660   10.8870   -0.6750 N.am   78  SER78      -0.1938
     18  CA        13.6800   11.0470   -2.1230 C.3    78  SER78       0.2055
     19  C         12.2450   10.9690   -2.5950 C.2    78  SER78       0.2643
     20  O         11.3750   10.4490   -1.8760 O.2    78  SER78      -0.2714
     21  CB        14.5240    9.9500   -2.8020 C.3    78  SER78       0.2130
     22  OG        13.8420    8.6900   -2.8310 O.3    78  SER78      -0.2179
     23  N         11.9700   11.5050   -3.7760 N.am   79  VAL79      -0.1963
     24  CA        10.6350   11.3660   -4.3670 C.3    79  VAL79       0.1727
     25  C         10.6120   10.1350   -5.2940 C.2    79  VAL79       0.2616
     26  O          9.5920    9.4380   -5.4160 O.2    79  VAL79      -0.2715
     27  CB        10.2110   12.6550   -5.1330 C.3    79  VAL79       0.0290
     28  CG1       11.1660   12.9240   -6.3110 C.3    79  VAL79       0.0023
     29  CG2        8.7740   12.5500   -5.5960 C.3    79  VAL79       0.0023
     30  N         11.7530    9.8660   -5.9310 N.am   80  GLY80      -0.1955
     31  CA        11.9520    8.6310   -6.6780 C.3    80  GLY80       0.1869
     32  C         11.8250    7.4110   -5.7680 C.2    80  GLY80       0.2309
     33  O         12.2300    7.4380   -4.6010 O.2    80  GLY80      -0.2863
     34  N         10.7390   19.0880   -2.6280 N.3   103  LEU103     -0.1245
     35  CA        11.9560   19.2560   -3.4430 C.3   103  LEU103      0.1561
     36  C         11.6980   19.6680   -4.9030 C.2   103  LEU103      0.2260
     37  O         12.6340   19.7760   -5.7040 O.2   103  LEU103     -0.2867
     38  CB        12.7810   17.9430   -3.3880 C.3   103  LEU103      0.0270
     39  CG        12.5300   16.6540   -4.2120 C.3   103  LEU103      0.0019
     40  CD1       12.8870   15.4030   -3.4340 C.3   103  LEU103      0.0001
     41  CD2       11.1510   16.5560   -4.7710 C.3   103  LEU103      0.0001
     42  N         14.4590   21.3720   -7.7110 N.3   107  THR107     -0.1218
     43  CA        14.8390   20.4480   -8.7630 C.3   107  THR107      0.1862
     44  C         14.5530   21.0590  -10.1180 C.2   107  THR107      0.2287
     45  O         15.2890   20.8430  -11.0590 O.2   107  THR107     -0.2866
     46  CB        14.0420   19.1280   -8.6550 C.3   107  THR107      0.1770
     47  OG1       14.2730   18.5610   -7.3740 O.3   107  THR107     -0.2211
     48  CG2       14.4990   18.1620   -9.6950 C.3   107  THR107      0.0375
     49  N         16.8130   14.8350  -16.1950 N.3   239  ILE239     -0.1231
     50  CA        16.9470   14.9920  -14.7550 C.3   239  ILE239      0.1692
     51  C         16.1020   13.9050  -14.0850 C.2   239  ILE239      0.2593
     52  O         15.7700   14.0000  -12.9060 O.2   239  ILE239     -0.2718
     53  CB        16.5100   16.4020  -14.2620 C.3   239  ILE239      0.0266
     54  CG1       15.0890   16.7530  -14.7040 C.3   239  ILE239      0.0019
     55  CG2       17.4200   17.5030  -14.8030 C.3   239  ILE239      0.0020
     56  CD1       14.1140   16.6810  -13.5640 C.3   239  ILE239      0.0001
     57  N         15.7470   12.8700  -14.8430 N.am  240  SER240     -0.1938
     58  CA        14.8430   11.8530  -14.3150 C.3   240  SER240      0.2055
     59  C         15.6320   10.6880  -13.6520 C.2   240  SER240      0.2642
     60  O         16.0300   10.7950  -12.4670 O.2   240  SER240     -0.2714
     61  CB        13.8310   11.4270  -15.4020 C.3   240  SER240      0.2130
     62  OG        14.4860   10.7250  -16.4470 O.3   240  SER240     -0.2179
     63  N         15.8790    9.6150  -14.4190 N.am  241  ARG241     -0.1977
     64  CA        16.7780    8.5280  -14.0550 C.3   241  ARG241      0.1597
     65  C         17.6930    8.1650  -15.2250 C.2   241  ARG241      0.2287
     66  O         17.3390    8.3820  -16.3730 O.2   241  ARG241     -0.2864
     67  CB        15.9970    7.2870  -13.6050 C.3   241  ARG241      0.0334
     68  CG        15.3650    7.4150  -12.1950 C.3   241  ARG241      0.0492
     69  CD        16.4040    7.3480  -11.0930 C.3   241  ARG241      0.2205
     70  NE        15.8630    7.5060   -9.7280 N.pl3 241  ARG241     -0.0865
     71  CZ        15.6980    8.6660   -9.0970 C.cat 241  ARG241      0.5346
     72  NH1       15.9550    9.8270   -9.7130 N.pl3 241  ARG241      0.1354
     73  NH2       15.2750    8.6690   -7.8460 N.pl3 241  ARG241      0.1354
     74  N         23.9360   14.3010   -9.9370 N.3   289  HIS289     -0.1241
     75  CA        22.6220   14.1110   -9.2510 C.3   289  HIS289      0.1621
     76  C         22.4300   15.0890   -8.1150 C.2   289  HIS289      0.2264
     77  O         22.2370   14.6780   -6.9720 O.2   289  HIS289     -0.2867
     78  CB        22.4480   12.6340   -8.7610 C.3   289  HIS289      0.0745
     79  CG        21.0260   12.1370   -8.7300 C.ar  289  HIS289      0.0817
     80  ND1       20.7050   10.8070   -8.9360 N.ar  289  HIS289     -0.2268
     81  CD2       19.8390   12.7820   -8.5090 C.ar  289  HIS289      0.1154
     82  CE1       19.3910   10.6600   -8.8580 C.ar  289  HIS289      0.1986
     83  NE2       18.8460   11.8390   -8.6090 N.ar  289  HIS289     -0.2212
     84  N         20.0280   17.7250   -8.3480 N.3   291  GLY291     -0.1210
     85  CA        18.6930   18.3750   -8.5010 C.3   291  GLY291      0.1956
     86  C         18.1330   19.0490   -7.2580 C.2   291  GLY291      0.2612
     87  O         17.7540   20.2110   -7.2950 O.2   291  GLY291     -0.2717
     88  N         18.0640   18.3200   -6.1440 N.am  292  SER292     -0.1952
     89  CA        17.4590   18.8830   -4.9020 C.3   292  SER292      0.1924
     90  C         18.4540   19.4670   -3.9190 C.2   292  SER292      0.2314
     91  O         18.0990   19.6020   -2.7220 O.2   292  SER292     -0.2863
     92  CB        16.6870   17.8160   -4.1440 C.3   292  SER292      0.2116
     93  OG        17.5100   16.6600   -3.9370 O.3   292  SER292     -0.2180
     94  N         17.1580   20.0680    1.5810 N.3   298  ARG298     -0.1245
     95  CA        17.6770   18.7870    2.0310 C.3   298  ARG298      0.1563
     96  C         17.3430   18.6350    3.5250 C.2   298  ARG298      0.2260
     97  O         16.9340   17.5570    3.9990 O.2   298  ARG298     -0.2867
     98  CB        19.2030   18.7320    1.7720 C.3   298  ARG298      0.0307
     99  CG        19.5950   18.6230    0.2810 C.3   298  ARG298      0.0489
    100  CD        19.3990   17.2340   -0.2460 C.3   298  ARG298      0.2205
    101  NE        19.5860   17.0250   -1.6850 N.pl3 298  ARG298     -0.0865
    102  CZ        20.7350   16.7680   -2.2730 C.cat 298  ARG298      0.5346
    103  NH1       21.8720   16.7640   -1.5780 N.pl3 298  ARG298      0.1354
    104  NH2       20.7630   16.5710   -3.5860 N.pl3 298  ARG298      0.1354
    105  N         13.6920   17.7350    3.3630 N.3   301  MET301     -0.1245
    106  CA        13.4960   16.3100    3.0320 C.3   301  MET301      0.1570
    107  C         13.9020   15.3930    4.1810 C.2   301  MET301      0.2261
    108  O         13.3300   14.3350    4.3930 O.2   301  MET301     -0.2867
    109  CB        14.2870   15.8800    1.7920 C.3   301  MET301      0.0387
    110  CG        13.9420   16.6350    0.5070 C.3   301  MET301      0.0595
    111  SD        15.3190   16.5720   -0.6840 S.3   301  MET301     -0.1393
    112  CE        15.5250   14.7930   -0.8970 C.3   301  MET301      0.0692
@<TRIPOS>BOND
     1    62    61    1
     2    66    65    2
     3    49    50    1
     4    61    58    1
     5    65    64    1
     6    57    58    1
     7    57    51   am
     8    55    53    1
     9    50    53    1
    10    50    51    1
    11    54    53    1
    12    54    56    1
    13    63    64    1
    14    63    59   am
    15    58    59    1
    16    51    52    2
    17    64    67    1
    18    59    60    2
    19    67    68    1
    20    68    69    1
    21    69    70    1
    22    45    44    2
    23    44    43    1
    24    74    75    1
    25    70    71    2
    26    72    71    1
    27    48    46    1
    28    75    78    1
    29    75    76    1
    30    71    73    1
    31    80    82   ar
    32    80    79   ar
    33    82    83   ar
    34    43    46    1
    35    43    42    1
    36    78    79    1
    37    79    81   ar
    38    46    47    1
    39    83    81   ar
    40    85    84    1
    41    85    86    1
    42    76    77    2
    43    87    86    2
    44    86    88   am
    45    31    30    1
    46    31    32    1
    47    28    27    1
    48    88    89    1
    49     7     6    1
    50    30    25   am
    51    32    33    2
    52    37    36    2
    53    29    27    1
    54    26    25    2
    55    25    24    1
    56    27    24    1
    57     8     6    1
    58     4     3    2
    59    36    35    1
    60    89    92    1
    61    89    90    1
    62    41    39    1
    63     6     5    1
    64     5     2    1
    65    24    23    1
    66    39    40    1
    67    39    38    1
    68    92    93    1
    69     3     2    1
    70    90    91    2
    71    23    19   am
    72   104   102    1
    73    35    38    1
    74    35    34    1
    75     2     1    1
    76    22    21    1
    77    21    18    1
    78    19    18    1
    79    19    20    2
    80   102   101    2
    81   102   103    1
    82    18    17    1
    83   101   100    1
    84   112   111    1
    85   111   110    1
    86    17    11   am
    87    12    11    2
    88   100    99    1
    89    11    10    1
    90    99    98    1
    91   110   109    1
    92    10     9    1
    93    10    13    1
    94    94    95    1
    95    98    95    1
    96   109   106    1
    97    95    96    1
    98    13    14    1
    99    16    15    1
   100    14    15    1
   101   106   105    1
   102   106   107    1
   103    96    97    2
   104   107   108    2
