@<TRIPOS>MOLECULE
tmp/2gciD00.pdb
 89 84 0 0 0
SMALL
GASTEIGER

@<TRIPOS>ATOM
      1  N         32.1210  -50.7480 -118.7580 N.3   192  MET192     -0.1245
      2  CA        32.8390  -51.4660 -119.8300 C.3   192  MET192      0.1570
      3  C         34.1500  -52.0890 -119.3020 C.2   192  MET192      0.2261
      4  O         34.4860  -53.2450 -119.6120 O.2   192  MET192     -0.2867
      5  CB        33.1580  -50.5860 -121.0320 C.3   192  MET192      0.0387
      6  CG        33.8330  -51.3730 -122.1500 C.3   192  MET192      0.0595
      7  SD        34.0820  -50.3620 -123.6170 S.3   192  MET192     -0.1393
      8  CE        35.7760  -49.9980 -123.4880 C.3   192  MET192      0.0692
      9  N         35.1800  -56.0350 -119.1470 N.3   196  MET196     -0.1245
     10  CA        36.4080  -56.4900 -119.8280 C.3   196  MET196      0.1570
     11  C         37.3550  -57.1950 -118.8420 C.2   196  MET196      0.2261
     12  O         38.0040  -58.1930 -119.1860 O.2   196  MET196     -0.2867
     13  CB        37.0670  -55.3410 -120.5600 C.3   196  MET196      0.0387
     14  CG        36.3080  -54.9340 -121.7910 C.3   196  MET196      0.0595
     15  SD        37.1500  -53.6760 -122.6830 S.3   196  MET196     -0.1393
     16  CE        37.0420  -52.3110 -121.6510 C.3   196  MET196      0.0692
     17  N         43.9710  -51.4420 -124.2180 N.3   210  MET210     -0.1230
     18  CA        43.6700  -51.0110 -125.6170 C.3   210  MET210      0.1702
     19  C         43.2950  -49.5410 -125.6480 C.2   210  MET210      0.2592
     20  O         43.5630  -48.8470 -126.6240 O.2   210  MET210     -0.2718
     21  CB        42.5280  -51.8200 -126.2390 C.3   210  MET210      0.0401
     22  CG        42.3600  -51.4660 -127.7440 C.3   210  MET210      0.0596
     23  SD        41.0060  -52.3740 -128.4850 S.3   210  MET210     -0.1393
     24  CE        41.6770  -54.0070 -128.2490 C.3   210  MET210      0.0692
     25  N         42.6860  -49.0280 -124.5660 N.am  211  LEU211     -0.1980
     26  CA        41.9850  -47.7170 -124.5490 C.3   211  LEU211      0.1596
     27  C         42.6140  -46.6880 -123.6130 C.2   211  LEU211      0.2287
     28  O         42.0420  -45.6120 -123.4590 O.2   211  LEU211     -0.2864
     29  CB        40.4410  -47.8060 -124.2790 C.3   211  LEU211      0.0297
     30  CG        39.7670  -48.7960 -125.2250 C.3   211  LEU211      0.0022
     31  CD1       38.3740  -49.0670 -124.8210 C.3   211  LEU211      0.0001
     32  CD2       39.7650  -48.2140 -126.6710 C.3   211  LEU211      0.0001
     33  N         45.9230  -46.4150 -130.6300 N.3   218  TYR218     -0.1241
     34  CA        44.9320  -45.6620 -129.8640 C.3   218  TYR218      0.1605
     35  C         45.6430  -44.7050 -128.8620 C.2   218  TYR218      0.2264
     36  O         45.7480  -45.0130 -127.6210 O.2   218  TYR218     -0.2867
     37  CB        43.9270  -46.6320 -129.1530 C.3   218  TYR218      0.0534
     38  CG        42.6790  -45.9380 -128.6700 C.ar  218  TYR218     -0.0201
     39  CD1       41.5350  -45.9010 -129.4330 C.ar  218  TYR218     -0.0009
     40  CD2       42.6570  -45.2520 -127.3960 C.ar  218  TYR218     -0.0009
     41  CE1       40.3870  -45.2750 -129.0390 C.ar  218  TYR218      0.0417
     42  CE2       41.5250  -44.5910 -126.9960 C.ar  218  TYR218      0.0417
     43  CZ        40.3910  -44.5820 -127.8010 C.ar  218  TYR218      0.1957
     44  OH        39.2930  -43.9250 -127.3930 O.3   218  TYR218     -0.2866
     45  N         41.2050  -48.6630 -134.4780 N.3   234  ILE234     -0.1231
     46  CA        41.1250  -49.9390 -133.7670 C.3   234  ILE234      0.1692
     47  C         40.9210  -51.0320 -134.8090 C.2   234  ILE234      0.2591
     48  O         41.6630  -52.0140 -134.8260 O.2   234  ILE234     -0.2718
     49  CB        39.9600  -49.9120 -132.7440 C.3   234  ILE234      0.0266
     50  CG1       40.2920  -48.9330 -131.5730 C.3   234  ILE234      0.0019
     51  CG2       39.7150  -51.3320 -132.1960 C.3   234  ILE234      0.0020
     52  CD1       39.1990  -48.7920 -130.5530 C.3   234  ILE234      0.0001
     53  N         39.8580  -50.8670 -135.6170 N.am  235  GLU235     -0.1979
     54  CA        39.4780  -51.8660 -136.6500 C.3   235  GLU235      0.1602
     55  C         40.5550  -51.9460 -137.7040 C.2   235  GLU235      0.2287
     56  O         41.1170  -50.9310 -138.1160 O.2   235  GLU235     -0.2864
     57  CB        38.1270  -51.4940 -137.2620 C.3   235  GLU235      0.0415
     58  CG        36.9740  -51.6480 -136.3200 C.3   235  GLU235      0.1163
     59  CD        36.6880  -50.3880 -135.5160 C.2   235  GLU235      0.3649
     60  OE1       37.5630  -49.5100 -135.4040 O.co2 235  GLU235     -0.2457
     61  OE2       35.5630  -50.3000 -135.0020 O.co2 235  GLU235     -0.2457
     62  N         40.6480  -52.2680 -140.8600 N.3   237  GLN237     -0.1231
     63  CA        40.4730  -51.5270 -142.1370 C.3   237  GLN237      0.1698
     64  C         40.7970  -50.0560 -141.9060 C.2   237  GLN237      0.2592
     65  O         41.2650  -49.3710 -142.8230 O.2   237  GLN237     -0.2718
     66  CB        39.0980  -51.7510 -142.8080 C.3   237  GLN237      0.0381
     67  CG        37.8520  -51.2390 -142.1000 C.3   237  GLN237      0.0905
     68  CD        37.3900  -52.1360 -140.9340 C.2   237  GLN237      0.2608
     69  OE1       38.1500  -52.9790 -140.4420 O.2   237  GLN237     -0.2717
     70  NE2       36.1340  -51.9700 -140.5140 N.am  237  GLN237     -0.0878
     71  N         40.6050  -49.5730 -140.6830 N.am  238  PHE238     -0.1976
     72  CA        40.8830  -48.1810 -140.3930 C.3   238  PHE238      0.1639
     73  C         42.3780  -48.0200 -140.1540 C.2   238  PHE238      0.2290
     74  O         43.0210  -47.0340 -140.5810 O.2   238  PHE238     -0.2864
     75  CB        40.1090  -47.7140 -139.1590 C.3   238  PHE238      0.0560
     76  CG        38.5890  -47.8560 -139.2720 C.ar  238  PHE238     -0.0200
     77  CD1       37.9440  -47.8150 -140.5180 C.ar  238  PHE238     -0.0042
     78  CD2       37.8080  -48.0230 -138.1360 C.ar  238  PHE238     -0.0042
     79  CE1       36.5600  -47.9430 -140.6310 C.ar  238  PHE238     -0.0003
     80  CE2       36.4070  -48.1450 -138.2460 C.ar  238  PHE238     -0.0003
     81  CZ        35.7930  -48.1040 -139.5000 C.ar  238  PHE238     -0.0000
     82  N         38.7310  -42.8260 -143.4080 N.3   289  ASP289     -0.1239
     83  CA        38.3740  -43.6060 -142.2290 C.3   289  ASP289      0.1674
     84  C         39.5740  -44.0390 -141.4110 C.2   289  ASP289      0.2266
     85  O         39.4400  -44.9610 -140.5600 O.2   289  ASP289     -0.2867
     86  CB        37.5000  -44.8280 -142.6040 C.3   289  ASP289      0.1410
     87  CG        36.0520  -44.4390 -142.9190 C.2   289  ASP289      0.3668
     88  OD1       35.3410  -45.3070 -143.4790 O.co2 289  ASP289     -0.2456
     89  OD2       35.6360  -43.2830 -142.6680 O.co2 289  ASP289     -0.2456
@<TRIPOS>BOND
     1    88    87   ar
     2    82    83    1
     3    87    89   ar
     4    87    86    1
     5    65    64    2
     6    66    63    1
     7    66    67    1
     8    86    83    1
     9    83    84    1
    10    63    64    1
    11    63    62    1
    12    67    68    1
    13    64    71   am
    14    84    85    2
    15    68    70   am
    16    68    69    2
    17    71    72    1
    18    79    77   ar
    19    79    81   ar
    20    74    73    2
    21    77    76   ar
    22    72    73    1
    23    72    75    1
    24    81    80   ar
    25    76    75    1
    26    76    78   ar
    27    80    78   ar
    28    56    55    2
    29    55    54    1
    30    57    54    1
    31    57    58    1
    32    54    53    1
    33    58    59    1
    34    53    47   am
    35    59    60   ar
    36    59    61   ar
    37    48    47    2
    38    47    46    1
    39    45    46    1
    40    46    49    1
    41    49    51    1
    42    49    50    1
    43    50    52    1
    44    33    34    1
    45    34    37    1
    46    34    35    1
    47    39    41   ar
    48    39    38   ar
    49    37    38    1
    50    41    43   ar
    51    35    36    2
    52    38    40   ar
    53    23    24    1
    54    23    22    1
    55    43    44    1
    56    43    42   ar
    57    22    21    1
    58    40    42   ar
    59    32    30    1
    60    20    19    2
    61    21    18    1
    62    19    18    1
    63    19    25   am
    64    18    17    1
    65    30    31    1
    66    30    29    1
    67    25    26    1
    68    26    29    1
    69    26    27    1
    70     7     8    1
    71     7     6    1
    72    27    28    2
    73    15    14    1
    74    15    16    1
    75     6     5    1
    76    14    13    1
    77     5     2    1
    78    13    10    1
    79     2     3    1
    80     2     1    1
    81    10     9    1
    82    10    11    1
    83     4     3    2
    84    12    11    2
