@<TRIPOS>MOLECULE
tmp/2gd0A01.pdb
 109 102 0 0 0
SMALL
GASTEIGER

@<TRIPOS>ATOM
      1  N         43.5090  -51.5050   -7.6130 N.3   192  MET192     -0.1245
      2  CA        44.6930  -52.2280   -8.1030 C.3   192  MET192      0.1570
      3  C         45.5290  -52.8190   -6.9600 C.2   192  MET192      0.2261
      4  O         45.9620  -53.9740   -7.0330 O.2   192  MET192     -0.2867
      5  CB        45.5860  -51.3120   -8.9630 C.3   192  MET192      0.0387
      6  CG        46.7490  -52.1150   -9.5900 C.3   192  MET192      0.0595
      7  SD        47.7380  -51.0460  -10.6670 S.3   192  MET192     -0.1393
      8  CE        48.9930  -50.6370   -9.6330 C.3   192  MET192      0.0692
      9  N         43.8150  -55.7980   -5.4780 N.3   195  ALA195     -0.1231
     10  CA        43.9230  -56.9230   -6.4450 C.3   195  ALA195      0.1694
     11  C         45.3190  -57.5070   -6.3470 C.2   195  ALA195      0.2591
     12  O         45.4760  -58.7550   -6.2540 O.2   195  ALA195     -0.2718
     13  CB        43.5990  -56.4650   -7.8220 C.3   195  ALA195      0.0304
     14  N         46.3360  -56.6430   -6.3400 N.am  196  MET196     -0.1979
     15  CA        47.7240  -57.0910   -6.1510 C.3   196  MET196      0.1605
     16  C         47.9780  -57.8180   -4.8150 C.2   196  MET196      0.2287
     17  O         48.7210  -58.7960   -4.7780 O.2   196  MET196     -0.2864
     18  CB        48.7360  -55.9790   -6.4250 C.3   196  MET196      0.0413
     19  CG        48.7620  -55.5560   -7.8620 C.3   196  MET196      0.0598
     20  SD        50.0530  -54.3650   -8.1230 S.3   196  MET196     -0.1393
     21  CE        49.6640  -53.0510   -7.0270 C.3   196  MET196      0.0692
     22  N         47.2560  -61.4610   -4.7610 N.3   199  THR199     -0.1218
     23  CA        48.1470  -62.3190   -5.5910 C.3   199  THR199      0.1862
     24  C         49.6690  -62.2600   -5.2450 C.2   199  THR199      0.2287
     25  O         50.5210  -62.6920   -6.0370 O.2   199  THR199     -0.2866
     26  CB        47.8990  -62.0670   -7.0800 C.3   199  THR199      0.1770
     27  OG1       48.2310  -60.6980   -7.3890 O.3   199  THR199     -0.2211
     28  CG2       46.4790  -62.3130   -7.4390 C.3   199  THR199      0.0375
     29  N         51.5330  -59.7190   -4.9350 N.3   201  MET201     -0.1245
     30  CA        52.1870  -58.6370   -5.7340 C.3   201  MET201      0.1570
     31  C         52.2210  -57.2770   -5.0050 C.2   201  MET201      0.2261
     32  O         52.6850  -56.2580   -5.5710 O.2   201  MET201     -0.2867
     33  CB        51.4580  -58.5240   -7.0560 C.3   201  MET201      0.0387
     34  CG        51.8930  -59.5650   -8.1750 C.3   201  MET201      0.0595
     35  SD        50.8250  -59.3790   -9.5650 S.3   201  MET201     -0.1393
     36  CE        51.3690  -57.8250  -10.2580 C.3   201  MET201      0.0692
     37  N         56.5010  -52.0220   -5.6490 N.3   210  MET210     -0.1230
     38  CA        56.9260  -51.5740   -7.0070 C.3   210  MET210      0.1702
     39  C         56.5980  -50.1220   -7.2640 C.2   210  MET210      0.2592
     40  O         57.3150  -49.4560   -7.9970 O.2   210  MET210     -0.2718
     41  CB        56.3470  -52.4270   -8.1190 C.3   210  MET210      0.0401
     42  CG        57.0930  -52.1880   -9.4740 C.3   210  MET210      0.0596
     43  SD        56.2220  -52.9450  -10.8050 S.3   210  MET210     -0.1393
     44  CE        56.7350  -54.6190  -10.4760 C.3   210  MET210      0.0692
     45  N         55.5290  -49.6100   -6.6490 N.am  211  LEU211     -0.1980
     46  CA        54.9720  -48.3030   -7.0700 C.3   211  LEU211      0.1596
     47  C         54.9280  -47.2650   -5.9380 C.2   211  LEU211      0.2287
     48  O         54.3460  -46.2070   -6.1330 O.2   211  LEU211     -0.2864
     49  CB        53.5970  -48.4400   -7.6800 C.3   211  LEU211      0.0297
     50  CG        53.4240  -49.4620   -8.8020 C.3   211  LEU211      0.0022
     51  CD1       52.0780  -49.6210   -9.3030 C.3   211  LEU211      0.0001
     52  CD2       54.3800  -48.9680   -9.9810 C.3   211  LEU211      0.0001
     53  N         61.5760  -46.9920   -9.9200 N.3   218  TYR218     -0.1241
     54  CA        60.3380  -46.3000   -9.8670 C.3   218  TYR218      0.1605
     55  C         60.3970  -45.3520   -8.6450 C.2   218  TYR218      0.2264
     56  O         59.8620  -45.6500   -7.5550 O.2   218  TYR218     -0.2867
     57  CB        59.0970  -47.2290   -9.8520 C.3   218  TYR218      0.0534
     58  CG        57.7650  -46.5440  -10.1240 C.ar  218  TYR218     -0.0201
     59  CD1       57.2130  -46.5220  -11.3880 C.ar  218  TYR218     -0.0009
     60  CD2       57.0420  -45.8070   -9.0780 C.ar  218  TYR218     -0.0009
     61  CE1       56.0180  -45.9250  -11.7150 C.ar  218  TYR218      0.0417
     62  CE2       55.8640  -45.2200   -9.3760 C.ar  218  TYR218      0.0417
     63  CZ        55.3380  -45.2100  -10.6170 C.ar  218  TYR218      0.1957
     64  OH        54.1840  -44.6400  -10.9600 O.3   218  TYR218     -0.2866
     65  N         59.7290  -49.2220  -15.7280 N.3   234  ILE234     -0.1231
     66  CA        59.2570  -50.5090  -15.1840 C.3   234  ILE234      0.1692
     67  C         59.6930  -51.5880  -16.2110 C.2   234  ILE234      0.2591
     68  O         60.4610  -52.4620  -15.8430 O.2   234  ILE234     -0.2718
     69  CB        57.7770  -50.5310  -14.9700 C.3   234  ILE234      0.0266
     70  CG1       57.4010  -49.5900  -13.8000 C.3   234  ILE234      0.0019
     71  CG2       57.3230  -51.9710  -14.5310 C.3   234  ILE234      0.0020
     72  CD1       55.9050  -49.3330  -13.7050 C.3   234  ILE234      0.0001
     73  N         59.1960  -51.4760  -17.4250 N.am  235  GLU235     -0.1979
     74  CA        59.5150  -52.4340  -18.5490 C.3   235  GLU235      0.1602
     75  C         61.0180  -52.5450  -18.8700 C.2   235  GLU235      0.2287
     76  O         61.7930  -51.5710  -18.7960 O.2   235  GLU235     -0.2864
     77  CB        58.6900  -52.1030  -19.7880 C.3   235  GLU235      0.0415
     78  CG        57.1790  -52.2340  -19.7360 C.3   235  GLU235      0.1163
     79  CD        56.4670  -51.0100  -19.0550 C.2   235  GLU235      0.3649
     80  OE1       57.1940  -50.1730  -18.4950 O.co2 235  GLU235     -0.2457
     81  OE2       55.2220  -50.9410  -19.1100 O.co2 235  GLU235     -0.2457
     82  N         62.8650  -52.9030  -21.4340 N.3   237  GLN237     -0.1231
     83  CA        63.4150  -52.1400  -22.6150 C.3   237  GLN237      0.1698
     84  C         63.5190  -50.6420  -22.2420 C.2   237  GLN237      0.2592
     85  O         64.4690  -49.9210  -22.6660 O.2   237  GLN237     -0.2718
     86  CB        62.6180  -52.4100  -23.9020 C.3   237  GLN237      0.0381
     87  CG        61.1590  -51.9210  -24.0760 C.3   237  GLN237      0.0905
     88  CD        60.1310  -52.7700  -23.3160 C.2   237  GLN237      0.2608
     89  OE1       60.4980  -53.5130  -22.3890 O.2   237  GLN237     -0.2717
     90  NE2       58.8640  -52.6490  -23.6910 N.am  237  GLN237     -0.0878
     91  N         62.6150  -50.1960  -21.3560 N.am  238  PHE238     -0.1976
     92  CA        62.6670  -48.7890  -20.8630 C.3   238  PHE238      0.1639
     93  C         63.7860  -48.6110  -19.8650 C.2   238  PHE238      0.2290
     94  O         64.5990  -47.6770  -19.9060 O.2   238  PHE238     -0.2864
     95  CB        61.3050  -48.3990  -20.2600 C.3   238  PHE238      0.0560
     96  CG        60.1600  -48.5250  -21.2070 C.ar  238  PHE238     -0.0200
     97  CD1       60.3540  -48.4440  -22.6060 C.ar  238  PHE238     -0.0042
     98  CD2       58.8680  -48.7290  -20.7340 C.ar  238  PHE238     -0.0042
     99  CE1       59.2910  -48.5660  -23.4710 C.ar  238  PHE238     -0.0003
    100  CE2       57.8010  -48.8430  -21.5960 C.ar  238  PHE238     -0.0003
    101  CZ        58.0140  -48.7850  -22.9890 C.ar  238  PHE238     -0.0000
    102  N         62.5750  -43.4210  -24.5830 N.3   289  ASP289     -0.1239
    103  CA        61.5900  -44.1950  -23.8290 C.3   289  ASP289      0.1674
    104  C         62.1000  -44.6240  -22.4470 C.2   289  ASP289      0.2266
    105  O         61.5600  -45.6080  -21.8970 O.2   289  ASP289     -0.2867
    106  CB        61.1760  -45.4290  -24.6250 C.3   289  ASP289      0.1410
    107  CG        60.0880  -45.1660  -25.5960 C.2   289  ASP289      0.3668
    108  OD1       59.7480  -46.1240  -26.3370 O.co2 289  ASP289     -0.2456
    109  OD2       59.5390  -44.0360  -25.6560 O.co2 289  ASP289     -0.2456
@<TRIPOS>BOND
     1   108   107   ar
     2   109   107   ar
     3   107   106    1
     4   106   103    1
     5   102   103    1
     6    87    86    1
     7    87    88    1
     8    86    83    1
     9   103   104    1
    10    90    88   am
    11    99   101   ar
    12    99    97   ar
    13    88    89    2
    14   101   100   ar
    15    85    84    2
    16    83    84    1
    17    83    82    1
    18    97    96   ar
    19   104   105    2
    20    84    91   am
    21   100    98   ar
    22    91    92    1
    23    96    98   ar
    24    96    95    1
    25    92    95    1
    26    92    93    1
    27    94    93    2
    28    77    78    1
    29    77    74    1
    30    78    79    1
    31    81    79   ar
    32    79    80   ar
    33    75    76    2
    34    75    74    1
    35    74    73    1
    36    73    67   am
    37    67    68    2
    38    67    66    1
    39    65    66    1
    40    66    69    1
    41    69    71    1
    42    69    70    1
    43    70    72    1
    44    61    59   ar
    45    61    63   ar
    46    59    58   ar
    47    64    63    1
    48    43    44    1
    49    43    42    1
    50     7     8    1
    51     7     6    1
    52    63    62   ar
    53    36    35    1
    54    58    57    1
    55    58    60   ar
    56    52    50    1
    57    53    54    1
    58    54    57    1
    59    54    55    1
    60     6     5    1
    61    35    34    1
    62    42    41    1
    63    62    60   ar
    64    51    50    1
    65     5     2    1
    66    50    49    1
    67    55    56    2
    68    34    33    1
    69    20    19    1
    70    20    21    1
    71    41    38    1
    72     2     1    1
    73     2     3    1
    74    40    39    2
    75    19    18    1
    76    13    10    1
    77    49    46    1
    78    28    26    1
    79    27    26    1
    80    39    38    1
    81    39    45   am
    82    26    23    1
    83    46    45    1
    84    46    47    1
    85    33    30    1
    86     4     3    2
    87    38    37    1
    88    10    11    1
    89    10     9    1
    90    18    15    1
    91    11    14   am
    92    11    12    2
    93    14    15    1
    94    15    16    1
    95    48    47    2
    96    25    24    2
    97    30    31    1
    98    30    29    1
    99    23    24    1
   100    23    22    1
   101    32    31    2
   102    16    17    2
