@<TRIPOS>MOLECULE
tmp/2gd2B01.pdb
 218 213 0 0 0
SMALL
GASTEIGER

@<TRIPOS>ATOM
      1  N        118.7310   48.0120   12.5750 N.3    15  ILE15      -0.1231
      2  CA       119.8390   48.0730   11.6460 C.3    15  ILE15       0.1692
      3  C        119.9990   46.7790   10.8550 C.2    15  ILE15       0.2593
      4  O        119.6150   45.7110   11.3130 O.2    15  ILE15      -0.2718
      5  CB       121.1390   48.4530   12.3920 C.3    15  ILE15       0.0266
      6  CG1      121.1550   49.9680   12.6590 C.3    15  ILE15       0.0019
      7  CG2      122.3350   48.0970   11.5960 C.3    15  ILE15       0.0020
      8  CD1      121.8470   50.3330   13.9190 C.3    15  ILE15       0.0001
      9  N        120.5250   46.8960    9.6460 N.am   16  GLY16      -0.1943
     10  CA       120.8610   45.7240    8.8370 C.3    16  GLY16       0.1998
     11  C        119.6330   45.0770    8.2290 C.2    16  GLY16       0.2480
     12  O        118.9450   45.7060    7.4010 O.2    16  GLY16      -0.2729
     13  N        119.3120   43.8370    8.6100 N.am   17  PRO17      -0.2726
     14  CA       118.2400   43.0940    7.8910 C.3    17  PRO17       0.1402
     15  C        116.8550   43.7310    7.8980 C.2    17  PRO17       0.2269
     16  O        116.1820   43.7320    6.8600 O.2    17  PRO17      -0.2865
     17  CB       118.2310   41.7220    8.5750 C.3    17  PRO17       0.0296
     18  CG       118.9030   41.9770    9.9300 C.3    17  PRO17       0.0237
     19  CD       119.9380   42.9960    9.6590 C.3    17  PRO17       0.0939
     20  N        108.8690   53.6490   12.4580 N.3    35  ILE35      -0.1231
     21  CA       108.8410   54.3750   13.7690 C.3    35  ILE35       0.1692
     22  C        110.2560   54.4880   14.2910 C.2    35  ILE35       0.2592
     23  O        110.9150   53.4730   14.5310 O.2    35  ILE35      -0.2718
     24  CB       107.9550   53.6630   14.8350 C.3    35  ILE35       0.0266
     25  CG1      106.5130   53.4650   14.3530 C.3    35  ILE35       0.0019
     26  CG2      107.9150   54.4940   16.1730 C.3    35  ILE35       0.0020
     27  CD1      105.6120   52.7380   15.3450 C.3    35  ILE35       0.0001
     28  N        110.7500   55.7110   14.4540 N.am   36  ASP36      -0.1960
     29  CA       112.0940   55.8800   15.0240 C.3    36  ASP36       0.1840
     30  C        112.0150   56.5670   16.3970 C.2    36  ASP36       0.2622
     31  O        110.9300   57.0160   16.8030 O.2    36  ASP36      -0.2715
     32  CB       112.9910   56.6460   14.0630 C.3    36  ASP36       0.1450
     33  CG       114.4340   56.1430   14.0710 C.2    36  ASP36       0.3671
     34  OD1      114.9800   55.7870   15.1510 O.co2  36  ASP36      -0.2456
     35  OD2      115.1200   56.0520   13.0250 O.co2  36  ASP36      -0.2456
     36  N        113.1450   56.6180   17.1110 N.am   37  ARG37      -0.1964
     37  CA       113.2170   57.3510   18.4130 C.3    37  ARG37       0.1714
     38  C        113.2050   58.8500   18.1180 C.2    37  ARG37       0.2458
     39  O        113.8160   59.2620   17.1240 O.2    37  ARG37      -0.2730
     40  CB       114.5140   57.0350   19.1690 C.3    37  ARG37       0.0347
     41  CG       114.9110   55.5700   19.2140 C.3    37  ARG37       0.0492
     42  CD       116.3970   55.3520   19.4620 C.3    37  ARG37       0.2205
     43  NE       116.8340   54.0070   19.0570 N.pl3  37  ARG37      -0.0865
     44  CZ       117.0350   52.9860   19.8890 C.cat  37  ARG37       0.5346
     45  NH1      116.8600   53.1360   21.2030 N.pl3  37  ARG37       0.1354
     46  NH2      117.4210   51.8090   19.4010 N.pl3  37  ARG37       0.1354
     47  N        112.5560   59.6670   18.9640 N.am   38  PRO38      -0.2727
     48  CA       112.5000   61.1450   18.7310 C.3    38  PRO38       0.1402
     49  C        113.8500   61.8790   18.8450 C.2    38  PRO38       0.2269
     50  O        114.9230   61.2630   18.7060 O.2    38  PRO38      -0.2865
     51  CB       111.5030   61.6480   19.7960 C.3    38  PRO38       0.0296
     52  CG       110.7860   60.3780   20.3010 C.3    38  PRO38       0.0237
     53  CD       111.8260   59.2760   20.1880 C.3    38  PRO38       0.0939
     54  N        108.4030   58.2570   17.7840 N.3    53  ALA53      -0.1231
     55  CA       107.6610   58.0150   19.0220 C.3    53  ALA53       0.1694
     56  C        108.5880   57.5310   20.1280 C.2    53  ALA53       0.2592
     57  O        109.4630   56.7030   19.8890 O.2    53  ALA53      -0.2718
     58  CB       106.5210   57.0070   18.7980 C.3    53  ALA53       0.0304
     59  N        108.3920   58.0500   21.3430 N.am   54  ASP54      -0.1960
     60  CA       109.0690   57.4850   22.5010 C.3    54  ASP54       0.1840
     61  C        108.2990   56.2420   22.9240 C.2    54  ASP54       0.2622
     62  O        107.3290   56.3270   23.6430 O.2    54  ASP54      -0.2715
     63  CB       109.1060   58.4910   23.6540 C.3    54  ASP54       0.1450
     64  CG       109.8180   57.9460   24.8830 C.2    54  ASP54       0.3671
     65  OD1      110.4650   56.8820   24.7890 O.co2  54  ASP54      -0.2456
     66  OD2      109.7880   58.5320   25.9930 O.co2  54  ASP54      -0.2456
     67  N        108.7370   55.0720   22.4730 N.am   55  LEU55      -0.1963
     68  CA       107.9930   53.8450   22.7760 C.3    55  LEU55       0.1728
     69  C        107.9280   53.5000   24.2640 C.2    55  LEU55       0.2616
     70  O        107.0650   52.7270   24.6780 O.2    55  LEU55      -0.2715
     71  CB       108.5440   52.6630   21.9660 C.3    55  LEU55       0.0311
     72  CG       108.2960   52.9310   20.4860 C.3    55  LEU55       0.0022
     73  CD1      108.9000   51.7920   19.6090 C.3    55  LEU55       0.0001
     74  CD2      106.7840   53.1620   20.2310 C.3    55  LEU55       0.0001
     75  N        108.8320   54.0870   25.0520 N.am   56  LYS56      -0.1977
     76  CA       108.8550   53.8800   26.5120 C.3    56  LYS56       0.1596
     77  C        107.9170   54.8110   27.2570 C.2    56  LYS56       0.2287
     78  O        107.6850   54.6370   28.4570 O.2    56  LYS56      -0.2864
     79  CB       110.2790   53.9910   27.0640 C.3    56  LYS56       0.0298
     80  CG       111.1910   52.8890   26.5750 C.3    56  LYS56       0.0038
     81  CD       112.3990   52.6660   27.4460 C.3    56  LYS56       0.0206
     82  CE       113.0010   51.2980   27.1150 C.3    56  LYS56       0.1093
     83  NZ       114.3810   51.1850   27.4970 N.3    56  LYS56      -0.1314
     84  N        113.6050   44.2470   14.8460 N.3    77  GLY77      -0.1210
     85  CA       114.8980   43.5870   14.8220 C.3    77  GLY77       0.1956
     86  C        115.7480   43.8580   16.0640 C.2    77  GLY77       0.2612
     87  O        116.9550   44.0040   15.9510 O.2    77  GLY77      -0.2717
     88  N        115.0840   43.9150   17.2230 N.am   78  TYR78      -0.1962
     89  CA       115.7650   44.0660   18.5220 C.3    78  TYR78       0.1771
     90  C        116.0610   42.6910   19.1490 C.2    78  TYR78       0.2619
     91  O        115.5290   41.6540   18.6980 O.2    78  TYR78      -0.2715
     92  CB       114.8760   44.8940   19.4400 C.3    78  TYR78       0.0574
     93  CG       114.4460   46.2250   18.8460 C.ar   78  TYR78      -0.0198
     94  CD1      113.1050   46.5570   18.7330 C.ar   78  TYR78      -0.0009
     95  CD2      115.3890   47.1440   18.3740 C.ar   78  TYR78      -0.0009
     96  CE1      112.6920   47.7780   18.1950 C.ar   78  TYR78       0.0417
     97  CE2      114.9700   48.3950   17.8190 C.ar   78  TYR78       0.0417
     98  CZ       113.6300   48.6760   17.7240 C.ar   78  TYR78       0.1957
     99  OH       113.1770   49.8740   17.1870 O.3    78  TYR78      -0.2866
    100  N        116.8910   42.6590   20.1940 N.am   79  ARG79      -0.1964
    101  CA       116.9850   41.4460   21.0310 C.3    79  ARG79       0.1714
    102  C        115.6260   40.8690   21.4040 C.2    79  ARG79       0.2458
    103  O        114.6950   41.6130   21.6890 O.2    79  ARG79      -0.2730
    104  CB       117.7590   41.7320   22.3240 C.3    79  ARG79       0.0347
    105  CG       119.2200   41.7880   22.1340 C.3    79  ARG79       0.0492
    106  CD       119.9350   42.8460   22.9760 C.3    79  ARG79       0.2205
    107  NE       121.0570   42.1780   23.5750 N.pl3  79  ARG79      -0.0865
    108  CZ       122.2530   42.6460   23.8080 C.cat  79  ARG79       0.5346
    109  NH1      122.6390   43.8980   23.5180 N.pl3  79  ARG79       0.1354
    110  NH2      123.0870   41.7900   24.3460 N.pl3  79  ARG79       0.1354
    111  N        115.5010   39.5390   21.4130 N.am   80  PRO80      -0.2727
    112  CA       114.3180   38.8990   21.9440 C.3    80  PRO80       0.1402
    113  C        114.0430   39.5020   23.3280 C.2    80  PRO80       0.2269
    114  O        114.9970   39.6810   24.0970 O.2    80  PRO80      -0.2865
    115  CB       114.7540   37.4390   22.0970 C.3    80  PRO80       0.0296
    116  CG       115.7310   37.2510   20.9660 C.3    80  PRO80       0.0237
    117  CD       116.4980   38.5640   20.9020 C.3    80  PRO80       0.0939
    118  N        112.8100   42.5890   23.9100 N.3    82  VAL82      -0.1245
    119  CA       112.7630   44.0510   23.8730 C.3    82  VAL82       0.1561
    120  C        111.3470   44.5780   23.6090 C.2    82  VAL82       0.2260
    121  O        110.8310   45.4160   24.3830 O.2    82  VAL82      -0.2867
    122  CB       113.7980   44.6270   22.9070 C.3    82  VAL82       0.0252
    123  CG1      113.5530   46.1140   22.6190 C.3    82  VAL82       0.0019
    124  CG2      115.2010   44.3730   23.4310 C.3    82  VAL82       0.0019
    125  N        108.9730   43.7830   26.6950 N.3    85  ARG85      -0.1231
    126  CA       109.1700   44.8360   27.7170 C.3    85  ARG85       0.1694
    127  C        108.4550   46.1640   27.4300 C.2    85  ARG85       0.2591
    128  O        107.9870   46.8380   28.3480 O.2    85  ARG85      -0.2718
    129  CB       110.6530   45.1360   27.8740 C.3    85  ARG85       0.0321
    130  CG       111.3160   44.4560   29.0110 C.3    85  ARG85       0.0489
    131  CD       112.8320   44.7490   29.0810 C.3    85  ARG85       0.2205
    132  NE       113.5320   43.5170   28.7990 N.pl3  85  ARG85      -0.0865
    133  CZ       114.3820   43.3030   27.8210 C.cat  85  ARG85       0.5346
    134  NH1      114.7800   44.2690   26.9890 N.pl3  85  ARG85       0.1354
    135  NH2      114.8820   42.0890   27.7130 N.pl3  85  ARG85       0.1354
    136  N        108.4150   46.5320   26.1550 N.am   86  LEU86      -0.1980
    137  CA       107.8330   47.7790   25.7050 C.3    86  LEU86       0.1596
    138  C        106.3220   47.7470   25.7100 C.2    86  LEU86       0.2287
    139  O        105.6770   48.8030   25.6900 O.2    86  LEU86      -0.2864
    140  CB       108.3570   48.1140   24.2910 C.3    86  LEU86       0.0297
    141  CG       109.7660   48.6840   24.0580 C.3    86  LEU86       0.0022
    142  CD1      109.9990   48.9200   22.5580 C.3    86  LEU86       0.0001
    143  CD2      109.9500   49.9900   24.8270 C.3    86  LEU86       0.0001
    144  N        113.1650   39.6830   13.3160 N.3   105  MET105     -0.1230
    145  CA       114.3910   39.5770   12.5800 C.3   105  MET105      0.1702
    146  C        115.5670   39.5870   13.5450 C.2   105  MET105      0.2593
    147  O        115.9110   40.6500   14.1090 O.2   105  MET105     -0.2718
    148  CB       114.4990   40.7870   11.6430 C.3   105  MET105      0.0401
    149  CG       115.6620   40.7990   10.7710 C.3   105  MET105      0.0596
    150  SD       115.5590   39.4340    9.5020 S.3   105  MET105     -0.1393
    151  CE       116.9890   38.4750    9.9800 C.3   105  MET105      0.0692
    152  N        116.2160   38.4380   13.7230 N.am  106  THR106     -0.1939
    153  CA       117.4000   38.3710   14.5930 C.3   106  THR106      0.2028
    154  C        118.5220   37.5850   13.9480 C.2   106  THR106      0.2642
    155  O        118.3510   37.0720   12.8420 O.2   106  THR106     -0.2714
    156  CB       117.0330   37.7670   15.9970 C.3   106  THR106      0.1808
    157  OG1      116.6060   36.3850   15.8700 O.3   106  THR106     -0.2208
    158  CG2      115.8400   38.5400   16.6730 C.3   106  THR106      0.0379
    159  N        119.6700   37.5130   14.6160 N.am  107  GLY107     -0.1954
    160  CA       120.7990   36.6980   14.1590 C.3   107  GLY107      0.1869
    161  C        120.6900   35.3060   14.7590 C.2   107  GLY107      0.2309
    162  O        120.8060   34.3000   14.0720 O.2   107  GLY107     -0.2863
    163  N        122.6600   37.4010   23.0220 N.3   117  GLN117     -0.1231
    164  CA       124.0220   37.8510   22.8280 C.3   117  GLN117      0.1698
    165  C        124.0950   38.8400   21.6500 C.2   117  GLN117      0.2592
    166  O        123.4500   38.5840   20.6100 O.2   117  GLN117     -0.2718
    167  CB       124.8680   36.6110   22.5380 C.3   117  GLN117      0.0381
    168  CG       126.2580   36.8250   22.3360 C.3   117  GLN117      0.0905
    169  CD       127.0830   35.5260   22.3000 C.2   117  GLN117      0.2608
    170  OE1      126.8630   34.6410   21.4480 O.2   117  GLN117     -0.2717
    171  NE2      128.0740   35.4440   23.1960 N.am  117  GLN117     -0.0878
    172  N        124.8490   39.9390   21.7850 N.am  118  ALA118     -0.1966
    173  CA       125.0690   40.8450   20.6290 C.3   118  ALA118      0.1728
    174  C        125.7920   40.1010   19.4990 C.2   118  ALA118      0.2617
    175  O        126.5460   39.1470   19.7300 O.2   118  ALA118     -0.2715
    176  CB       125.9110   42.0510   21.0140 C.3   118  ALA118      0.0334
    177  N        125.6470   40.6050   18.2750 N.am  119  GLY119     -0.1940
    178  CA       126.4750   40.1530   17.1990 C.3   119  GLY119      0.2014
    179  C        126.1330   40.9080   15.9200 C.2   119  GLY119      0.2638
    180  O        125.1870   41.7540   15.8810 O.2   119  GLY119     -0.2714
    181  N        126.8960   40.5670   14.9030 N.am  120  HIS120     -0.1973
    182  CA       126.7300   41.1080   13.5550 C.3   120  HIS120      0.1656
    183  C        126.8660   39.9510   12.5600 C.2   120  HIS120      0.2291
    184  O        127.1830   38.8130   12.9280 O.2   120  HIS120     -0.2864
    185  CB       127.7540   42.1900   13.3060 C.3   120  HIS120      0.0771
    186  CG       127.4380   43.4510   14.0450 C.ar  120  HIS120      0.0820
    187  ND1      126.4360   44.3040   13.6400 N.ar  120  HIS120     -0.2267
    188  CD2      127.9200   43.9590   15.2100 C.ar  120  HIS120      0.1154
    189  CE1      126.3290   45.3020   14.5050 C.ar  120  HIS120      0.1986
    190  NE2      127.1910   45.0950   15.4870 N.ar  120  HIS120     -0.2212
    191  N        127.2290   35.4890   12.8980 N.3   124  TYR124     -0.1241
    192  CA       126.1650   34.5480   12.6150 C.3   124  TYR124      0.1605
    193  C        126.6610   33.5070   11.6070 C.2   124  TYR124      0.2264
    194  O        126.3600   32.3030   11.7600 O.2   124  TYR124     -0.2867
    195  CB       124.9040   35.2430   12.1450 C.3   124  TYR124      0.0534
    196  CG       124.4660   36.3370   13.0770 C.ar  124  TYR124     -0.0201
    197  CD1      124.3900   36.1140   14.4670 C.ar  124  TYR124     -0.0009
    198  CD2      124.2160   37.6230   12.5910 C.ar  124  TYR124     -0.0009
    199  CE1      124.0180   37.1470   15.3450 C.ar  124  TYR124      0.0417
    200  CE2      123.8300   38.6520   13.4490 C.ar  124  TYR124      0.0417
    201  CZ       123.7510   38.4140   14.8290 C.ar  124  TYR124      0.1957
    202  OH       123.3480   39.4330   15.6750 O.3   124  TYR124     -0.2866
    203  N        123.1930   39.2050    6.9660 N.3   150  ASP150     -0.1239
    204  CA       122.2010   40.2720    6.9470 C.3   150  ASP150      0.1674
    205  C        121.1650   40.1650    5.8150 C.2   150  ASP150      0.2266
    206  O        119.9870   40.4070    6.0520 O.2   150  ASP150     -0.2867
    207  CB       122.8830   41.6430    6.8810 C.3   150  ASP150      0.1410
    208  CG       123.5690   42.0320    8.1930 C.2   150  ASP150      0.3668
    209  OD1      123.3240   41.3380    9.2250 O.co2 150  ASP150     -0.2456
    210  OD2      124.4130   42.9540    8.2400 O.co2 150  ASP150     -0.2456
    211  N        119.1680   34.7860   11.2980 N.3   182  MET182     -0.1245
    212  CA       120.1470   34.8000   10.2070 C.3   182  MET182      0.1570
    213  C        120.9580   33.5330   10.2620 C.2   182  MET182      0.2261
    214  O        121.3930   33.0480    9.2280 O.2   182  MET182     -0.2867
    215  CB       121.0740   36.0420   10.2450 C.3   182  MET182      0.0387
    216  CG       120.2940   37.3480   10.0520 C.3   182  MET182      0.0595
    217  SD       121.3590   38.8080   10.2260 S.3   182  MET182     -0.1393
    218  CE       120.7490   39.4010   11.8450 C.3   182  MET182      0.0692
@<TRIPOS>BOND
     1   205   206    2
     2   205   204    1
     3    16    15    2
     4   207   204    1
     5   207   208    1
     6   204   203    1
     7    12    11    2
     8    14    15    1
     9    14    17    1
    10    14    13    1
    11   208   210   ar
    12   208   209   ar
    13    11    13   am
    14    11    10    1
    15    17    18    1
    16    13    19    1
    17    10     9    1
    18   214   213    2
    19   150   151    1
    20   150   149    1
    21     9     3   am
    22    19    18    1
    23   216   217    1
    24   216   215    1
    25   212   215    1
    26   212   213    1
    27   212   211    1
    28   217   218    1
    29   149   148    1
    30     3     4    2
    31     3     2    1
    32     7     5    1
    33   193   194    2
    34   193   192    1
    35   148   145    1
    36     2     5    1
    37     2     1    1
    38   195   192    1
    39   195   196    1
    40     5     6    1
    41    20    21    1
    42   183   184    2
    43   183   182    1
    44   145   144    1
    45   145   146    1
    46   198   196   ar
    47   198   200   ar
    48   192   191    1
    49     6     8    1
    50   155   154    2
    51    35    33   ar
    52   196   197   ar
    53   185   182    1
    54   185   186    1
    55   200   201   ar
    56   146   152   am
    57   146   147    2
    58   182   181    1
    59   187   186   ar
    60   187   189   ar
    61   152   153    1
    62    21    22    1
    63    21    24    1
    64   154   153    1
    65   154   159   am
    66   186   188   ar
    67    32    33    1
    68    32    29    1
    69    33    34   ar
    70   162   161    2
    71   160   159    1
    72   160   161    1
    73    22    28   am
    74    22    23    2
    75    25    24    1
    76    25    27    1
    77    28    29    1
    78   197   199   ar
    79   189   190   ar
    80   153   156    1
    81    85    84    1
    82    85    86    1
    83   201   199   ar
    84   201   202    1
    85    24    26    1
    86   181   179   am
    87    29    30    1
    88   188   190   ar
    89   157   156    1
    90   180   179    2
    91   179   178    1
    92    87    86    2
    93   156   158    1
    94    86    88   am
    95    30    31    2
    96    30    36   am
    97    36    37    1
    98    39    38    2
    99    99    98    1
   100   178   177    1
   101    88    89    1
   102    98    97   ar
   103    98    96   ar
   104    54    55    1
   105    97    95   ar
   106    38    37    1
   107    38    47   am
   108    96    94   ar
   109   177   174   am
   110    95    93   ar
   111    37    40    1
   112    89    90    1
   113    89    92    1
   114    91    90    2
   115    50    49    2
   116    48    49    1
   117    48    47    1
   118    48    51    1
   119    94    93   ar
   120    58    55    1
   121    93    92    1
   122    47    53    1
   123    55    56    1
   124    43    42    1
   125    43    44    2
   126    90   100   am
   127    40    41    1
   128    41    42    1
   129    46    44    1
   130   174   175    2
   131   174   173    1
   132    73    72    1
   133    51    52    1
   134    44    45    1
   135    57    56    2
   136    56    59   am
   137    53    52    1
   138   100   101    1
   139    74    72    1
   140    72    71    1
   141   166   165    2
   142   173   176    1
   143   173   172    1
   144   117   116    1
   145   117   111    1
   146   116   115    1
   147   101   102    1
   148   101   104    1
   149    59    60    1
   150   102   111   am
   151   102   103    2
   152   111   112    1
   153   170   169    2
   154   165   172   am
   155   165   164    1
   156   112   115    1
   157   112   113    1
   158    71    68    1
   159   105   104    1
   160   105   106    1
   161   169   168    1
   162   169   171   am
   163   168   167    1
   164    67    68    1
   165    67    61   am
   166    60    61    1
   167    60    63    1
   168   167   164    1
   169   142   141    1
   170   123   122    1
   171    68    69    1
   172   164   163    1
   173   122   124    1
   174   122   119    1
   175    61    62    2
   176   106   107    1
   177   113   114    2
   178   109   108    1
   179   107   108    2
   180   120   119    1
   181   120   121    2
   182    63    64    1
   183   108   110    1
   184   119   118    1
   185   141   140    1
   186   141   143    1
   187    69    70    2
   188    69    75   am
   189   140   137    1
   190    65    64   ar
   191    64    66   ar
   192    75    76    1
   193   139   138    2
   194   137   138    1
   195   137   136    1
   196   136   127   am
   197    76    79    1
   198    76    77    1
   199    80    79    1
   200    80    81    1
   201   125   126    1
   202   134   133    1
   203    82    81    1
   204    82    83    1
   205    77    78    2
   206   127   126    1
   207   127   128    2
   208   135   133    1
   209   126   129    1
   210   133   132    2
   211   129   130    1
   212   132   131    1
   213   130   131    1
