@<TRIPOS>MOLECULE
tmp/2gd4C00.pdb
 121 118 0 0 0
SMALL
GASTEIGER

@<TRIPOS>ATOM
      1  N        -63.9500   25.9020   60.3910 N.3     9  ARG9       -0.1245
      2  CA       -64.7310   27.0280   60.8780 C.3     9  ARG9        0.1563
      3  C        -64.0130   28.3140   60.4820 C.2     9  ARG9        0.2260
      4  O        -64.0480   29.3180   61.1870 O.2     9  ARG9       -0.2867
      5  CB       -64.8910   26.9240   62.3940 C.3     9  ARG9        0.0307
      6  CG       -65.7600   25.7450   62.8300 C.3     9  ARG9        0.0489
      7  CD       -67.2360   26.0150   62.5640 C.3     9  ARG9        0.2205
      8  NE       -67.7400   27.1000   63.4030 N.pl3   9  ARG9       -0.0865
      9  CZ       -68.9710   27.6030   63.3420 C.cat   9  ARG9        0.5346
     10  NH1      -69.8500   27.1250   62.4720 N.pl3   9  ARG9        0.1354
     11  NH2      -69.3230   28.5930   64.1550 N.pl3   9  ARG9        0.1354
     12  N        -67.1520   27.8110   55.4260 N.3    12  PRO12      -0.2102
     13  CA       -68.4940   27.3390   55.7800 C.3    12  PRO12       0.1504
     14  C        -68.4470   25.9450   56.3960 C.2    12  PRO12       0.2576
     15  O        -68.0840   24.9750   55.7360 O.2    12  PRO12      -0.2718
     16  CB       -69.2440   27.3870   54.4450 C.3    12  PRO12       0.0282
     17  CG       -68.1380   27.3490   53.4030 C.3    12  PRO12       0.0208
     18  CD       -67.0970   28.2320   54.0190 C.3    12  PRO12       0.0893
     19  N        -68.8080   25.8540   57.6700 N.am   13  MET13      -0.1966
     20  CA       -68.7740   24.5830   58.3790 C.3    13  MET13       0.1736
     21  C        -70.1440   24.0290   58.7660 C.2    13  MET13       0.2616
     22  O        -71.1690   24.4330   58.2210 O.2    13  MET13      -0.2715
     23  CB       -67.9060   24.7240   59.6320 C.3    13  MET13       0.0427
     24  CG       -66.6500   25.4390   59.3770 C.3    13  MET13       0.0599
     25  SD       -65.3930   24.2430   59.1500 S.3    13  MET13      -0.1393
     26  CE       -65.8310   23.8170   57.5140 C.3    13  MET13       0.0692
     27  N        -70.1300   23.0930   59.7120 N.am   14  ASN14      -0.1959
     28  CA       -71.3330   22.4400   60.2240 C.3    14  ASN14       0.1804
     29  C        -72.4650   22.2930   59.2100 C.2    14  ASN14       0.2463
     30  O        -73.4230   23.0620   59.2200 O.2    14  ASN14      -0.2730
     31  CB       -71.8500   23.1780   61.4680 C.3    14  ASN14       0.1195
     32  CG       -70.9790   22.9410   62.7010 C.2    14  ASN14       0.2630
     33  OD1      -71.2540   23.4700   63.7840 O.2    14  ASN14      -0.2716
     34  ND2      -69.9270   22.1430   62.5410 N.am   14  ASN14      -0.0877
     35  N        -72.3690   21.2850   58.3300 N.am   15  PRO15      -0.2716
     36  CA       -73.3680   21.0030   57.2960 C.3    15  PRO15       0.1536
     37  C        -74.6730   20.4320   57.8490 C.2    15  PRO15       0.2598
     38  O        -74.9890   20.6050   59.0310 O.2    15  PRO15      -0.2715
     39  CB       -72.6540   20.0070   56.3990 C.3    15  PRO15       0.0310
     40  CG       -71.8360   19.2330   57.3870 C.3    15  PRO15       0.0237
     41  CD       -71.2450   20.3370   58.2330 C.3    15  PRO15       0.0939
     42  N        -75.4080   19.7460   56.9690 N.am   16  MET16      -0.1964
     43  CA       -76.7040   19.1280   57.2830 C.3    16  MET16       0.1736
     44  C        -76.5880   17.6760   57.7690 C.2    16  MET16       0.2617
     45  O        -75.7320   16.9190   57.3000 O.2    16  MET16      -0.2715
     46  CB       -77.6190   19.1820   56.0490 C.3    16  MET16       0.0427
     47  CG       -76.9870   18.5890   54.8040 C.3    16  MET16       0.0599
     48  SD       -78.2360   18.5140   53.5370 S.3    16  MET16      -0.1393
     49  CE       -78.4960   20.3100   53.3080 C.3    16  MET16       0.0692
     50  N        -77.4770   17.2960   58.6890 N.am   17  CYS17      -0.1954
     51  CA       -77.4770   15.9630   59.2780 C.3    17  CYS17       0.1843
     52  C        -76.0940   15.6170   59.7880 C.2    17  CYS17       0.2625
     53  O        -75.1650   15.4350   59.0120 O.2    17  CYS17      -0.2714
     54  CB       -77.8960   14.8980   58.2680 C.3    17  CYS17       0.0997
     55  SG       -79.6570   14.8890   57.8210 S.3    17  CYS17      -0.0797
     56  N        -75.9440   15.5420   61.0970 N.am   18  ILE18      -0.1977
     57  CA       -74.6660   15.1800   61.6540 C.3    18  ILE18       0.1596
     58  C        -74.9710   14.0560   62.6200 C.2    18  ILE18       0.2287
     59  O        -75.7650   14.2120   63.5420 O.2    18  ILE18      -0.2864
     60  CB       -74.0040   16.3780   62.3460 C.3    18  ILE18       0.0276
     61  CG1      -74.7720   16.7760   63.5970 C.3    18  ILE18       0.0022
     62  CG2      -73.9610   17.5440   61.3970 C.3    18  ILE18       0.0022
     63  CD1      -74.2860   16.0820   64.8410 C.3    18  ILE18       0.0001
     64  N        -75.4500   20.7270   44.7990 N.3   141  ASN141     -0.1240
     65  CA       -75.3650   21.8190   45.7520 C.3   141  ASN141      0.1653
     66  C        -74.2480   22.7750   45.3960 C.2   141  ASN141      0.2266
     67  O        -73.2550   22.3890   44.7790 O.2   141  ASN141     -0.2867
     68  CB       -75.1050   21.2700   47.1450 C.3   141  ASN141      0.1155
     69  CG       -75.4270   22.2610   48.2330 C.2   141  ASN141      0.2627
     70  OD1      -75.0820   23.4450   48.1540 O.2   141  ASN141     -0.2716
     71  ND2      -76.0930   21.7470   49.2620 N.am  141  ASN141     -0.0877
     72  N        -72.8370   24.7800   47.8530 N.3   143  THR143     -0.1203
     73  CA       -71.9500   24.6560   48.9990 C.3   143  THR143      0.1994
     74  C        -71.0390   23.4460   48.8990 C.2   143  THR143      0.2617
     75  O        -69.8320   23.5930   48.7540 O.2   143  THR143     -0.2717
     76  CB       -72.7370   24.5680   50.3010 C.3   143  THR143      0.1784
     77  OG1      -73.5110   25.7610   50.4660 O.3   143  THR143     -0.2211
     78  CG2      -71.7890   24.4120   51.4780 C.3   143  THR143      0.0376
     79  N        -71.6130   22.2520   48.9880 N.am  144  TYR144     -0.1975
     80  CA       -70.8340   21.0240   48.8950 C.3   144  TYR144      0.1639
     81  C        -69.7230   21.2240   47.8790 C.2   144  TYR144      0.2290
     82  O        -68.5690   20.9210   48.1510 O.2   144  TYR144     -0.2864
     83  CB       -71.7270   19.8690   48.4520 C.3   144  TYR144      0.0560
     84  CG       -71.0180   18.5470   48.3040 C.ar  144  TYR144     -0.0198
     85  CD1      -70.8170   17.7140   49.3990 C.ar  144  TYR144     -0.0009
     86  CD2      -70.5320   18.1350   47.0650 C.ar  144  TYR144     -0.0009
     87  CE1      -70.1480   16.5050   49.2660 C.ar  144  TYR144      0.0417
     88  CE2      -69.8600   16.9300   46.9180 C.ar  144  TYR144      0.0417
     89  CZ       -69.6690   16.1200   48.0210 C.ar  144  TYR144      0.1957
     90  OH       -68.9880   14.9340   47.8760 O.3   144  TYR144     -0.2866
     91  N        -67.0880   23.2560   49.3620 N.3   147  ILE147     -0.1245
     92  CA       -66.3740   22.4500   50.3310 C.3   147  ILE147      0.1561
     93  C        -65.4980   21.5350   49.5030 C.2   147  ILE147      0.2260
     94  O        -64.2810   21.7110   49.4430 O.2   147  ILE147     -0.2867
     95  CB       -67.3330   21.5960   51.1690 C.3   147  ILE147      0.0252
     96  CG1      -68.1480   22.4880   52.0980 C.3   147  ILE147      0.0019
     97  CG2      -66.5570   20.5790   51.9660 C.3   147  ILE147      0.0019
     98  CD1      -69.1710   21.7320   52.9150 C.3   147  ILE147      0.0001
     99  N        -79.2300   13.8340   50.5240 N.3   338  PRO338     -0.2102
    100  CA       -79.8420   15.1370   50.2760 C.3   338  PRO338      0.1504
    101  C        -78.8350   16.2720   50.4640 C.2   338  PRO338      0.2576
    102  O        -79.1900   17.4520   50.4560 O.2   338  PRO338     -0.2718
    103  CB       -80.9580   15.1720   51.3090 C.3   338  PRO338      0.0282
    104  CG       -80.3120   14.4910   52.4750 C.3   338  PRO338      0.0208
    105  CD       -79.6510   13.3030   51.8330 C.3   338  PRO338      0.0893
    106  N        -77.5740   15.9020   50.6360 N.am  339  GLY339     -0.1957
    107  CA       -76.5450   16.8990   50.8370 C.3   339  GLY339      0.1869
    108  C        -75.9250   17.3730   49.5450 C.2   339  GLY339      0.2309
    109  O        -75.4530   18.5050   49.4530 O.2   339  GLY339     -0.2863
    110  N        -77.6740   17.1730   46.6240 N.3   341  VAL341     -0.1231
    111  CA       -78.7510   17.5510   45.7160 C.3   341  VAL341      0.1692
    112  C        -80.0320   17.9520   46.4470 C.2   341  VAL341      0.2591
    113  O        -80.3930   19.1290   46.4820 O.2   341  VAL341     -0.2718
    114  CB       -79.0620   16.3950   44.7560 C.3   341  VAL341      0.0266
    115  CG1      -77.9580   16.2600   43.7230 C.3   341  VAL341      0.0020
    116  CG2      -79.1740   15.1060   45.5410 C.3   341  VAL341      0.0020
    117  N        -80.7110   16.9660   47.0260 N.am  342  ALA342     -0.1980
    118  CA       -81.9510   17.1960   47.7550 C.3   342  ALA342      0.1597
    119  C        -82.9600   17.9170   46.8860 C.2   342  ALA342      0.2287
    120  O        -83.1980   19.1110   47.0660 O.2   342  ALA342     -0.2864
    121  CB       -81.6800   18.0080   49.0030 C.3   342  ALA342      0.0319
@<TRIPOS>BOND
     1   115   114    1
     2   114   116    1
     3   114   111    1
     4    67    66    2
     5    64    65    1
     6    66    65    1
     7   111   112    1
     8   111   110    1
     9    65    68    1
    10   112   113    2
    11   112   117   am
    12   119   120    2
    13   119   118    1
    14    88    86   ar
    15    88    89   ar
    16   117   118    1
    17    86    84   ar
    18    68    69    1
    19   118   121    1
    20    72    73    1
    21    90    89    1
    22    81    82    2
    23    81    80    1
    24    89    87   ar
    25    70    69    2
    26    69    71   am
    27    84    83    1
    28    84    85   ar
    29    83    80    1
    30    75    74    2
    31    80    79    1
    32    74    79   am
    33    74    73    1
    34    73    76    1
    35    87    85   ar
    36    91    92    1
    37    94    93    2
    38   109   108    2
    39    93    92    1
    40   108   107    1
    41   100   101    1
    42   100    99    1
    43   100   103    1
    44    76    77    1
    45    76    78    1
    46    92    95    1
    47   102   101    2
    48   101   106   am
    49    99   105    1
    50   106   107    1
    51    95    97    1
    52    95    96    1
    53   103   104    1
    54   105   104    1
    55    96    98    1
    56    49    48    1
    57    17    18    1
    58    17    16    1
    59    48    47    1
    60    18    12    1
    61    16    13    1
    62    47    46    1
    63    12    13    1
    64    15    14    2
    65    13    14    1
    66    46    43    1
    67    14    19   am
    68    39    36    1
    69    39    40    1
    70    42    43    1
    71    42    37   am
    72    43    44    1
    73    36    37    1
    74    36    35    1
    75    45    44    2
    76    40    41    1
    77    26    25    1
    78    19    20    1
    79    44    50   am
    80    55    54    1
    81    37    38    2
    82    22    21    2
    83    41    35    1
    84    54    51    1
    85    35    29   am
    86    20    21    1
    87    20    23    1
    88    50    51    1
    89    21    27   am
    90    53    52    2
    91    25    24    1
    92    29    30    2
    93    29    28    1
    94    51    52    1
    95    24    23    1
    96    27    28    1
    97    52    56   am
    98    28    31    1
    99     1     2    1
   100     3     2    1
   101     3     4    2
   102     2     5    1
   103    56    57    1
   104    62    60    1
   105    31    32    1
   106    57    60    1
   107    57    58    1
   108    60    61    1
   109     5     6    1
   110    10     9    1
   111    34    32   am
   112     7     6    1
   113     7     8    1
   114    58    59    2
   115    32    33    2
   116     9     8    2
   117     9    11    1
   118    61    63    1
