@<TRIPOS>MOLECULE
tmp/2gd8A01.pdb
 104 96 0 0 0
SMALL
GASTEIGER

@<TRIPOS>ATOM
      1  N         -8.9390    1.9970    2.0510 N.3    57  LEU57      -0.1245
      2  CA        -7.5280    2.0080    1.7040 C.3    57  LEU57       0.1561
      3  C         -6.7200    0.8550    2.2750 C.2    57  LEU57       0.2260
      4  O         -6.9290    0.4460    3.4170 O.2    57  LEU57      -0.2867
      5  CB        -6.9030    3.3200    2.2000 C.3    57  LEU57       0.0270
      6  CG        -5.3760    3.4440    2.2230 C.3    57  LEU57       0.0019
      7  CD1       -4.8530    3.6920    0.8200 C.3    57  LEU57       0.0001
      8  CD2       -4.9710    4.5870    3.1470 C.3    57  LEU57       0.0001
      9  N         -3.3830    0.1780    3.6200 N.3    59  ASN59      -0.1240
     10  CA        -2.2420    0.9690    4.0730 C.3    59  ASN59       0.1653
     11  C         -0.9800    0.1550    4.3280 C.2    59  ASN59       0.2266
     12  O         -0.0360    0.6440    4.9530 O.2    59  ASN59      -0.2867
     13  CB        -2.6170    1.7560    5.3350 C.3    59  ASN59       0.1155
     14  CG        -2.7560    0.8710    6.5550 C.2    59  ASN59       0.2627
     15  OD1       -2.7560   -0.3510    6.4510 O.2    59  ASN59      -0.2716
     16  ND2       -2.8800    1.4900    7.7230 N.am   59  ASN59      -0.0877
     17  N         -8.4540    0.1020    5.6430 N.3    64  ASN64      -0.1240
     18  CA        -9.1960    1.0480    6.4500 C.3    64  ASN64       0.1653
     19  C        -10.3110    1.7370    5.6910 C.2    64  ASN64       0.2266
     20  O        -10.1190    2.1870    4.5620 O.2    64  ASN64      -0.2867
     21  CB        -8.2210    2.0980    6.9880 C.3    64  ASN64       0.1155
     22  CG        -7.0190    1.4740    7.6760 C.2    64  ASN64       0.2627
     23  OD1       -7.0020    1.3110    8.8920 O.2    64  ASN64      -0.2716
     24  ND2       -6.0110    1.1040    6.8910 N.am   64  ASN64      -0.0877
     25  N        -12.5190    4.9000    5.6800 N.3    66  GLU66      -0.1245
     26  CA       -12.5140    6.2470    6.2260 C.3    66  GLU66       0.1567
     27  C        -13.8720    6.9210    6.1120 C.2    66  GLU66       0.2260
     28  O        -14.6240    6.6670    5.1710 O.2    66  GLU66      -0.2867
     29  CB       -11.4600    7.0720    5.4970 C.3    66  GLU66       0.0388
     30  CG       -10.1610    6.3160    5.3230 C.3    66  GLU66       0.1160
     31  CD        -9.2560    6.9450    4.2960 C.2    66  GLU66       0.3649
     32  OE1       -9.7850    7.5410    3.3350 O.co2  66  GLU66      -0.2457
     33  OE2       -8.0210    6.8290    4.4410 O.co2  66  GLU66      -0.2457
     34  N        -15.4110   13.1290    8.9100 N.3    69  ASP69      -0.1239
     35  CA       -15.5550   13.5450   10.2980 C.3    69  ASP69       0.1674
     36  C        -15.4740   15.0600   10.4390 C.2    69  ASP69       0.2266
     37  O        -15.1180   15.5730   11.4980 O.2    69  ASP69      -0.2867
     38  CB       -14.4750   12.8900   11.1650 C.3    69  ASP69       0.1410
     39  CG       -13.0730   13.3110   10.7690 C.2    69  ASP69       0.3668
     40  OD1      -12.1140   12.9450   11.4810 O.co2  69  ASP69      -0.2456
     41  OD2      -12.9260   14.0080    9.7410 O.co2  69  ASP69      -0.2456
     42  N        -13.8810    8.2410   12.7690 N.3    88  ILE88      -0.1231
     43  CA       -13.0260    8.6700   11.6700 C.3    88  ILE88       0.1692
     44  C        -12.7160    7.5200   10.7080 C.2    88  ILE88       0.2591
     45  O        -12.6230    7.7210    9.4970 O.2    88  ILE88      -0.2718
     46  CB       -11.7090    9.3060   12.1970 C.3    88  ILE88       0.0266
     47  CG1      -10.8410    9.7660   11.0200 C.3    88  ILE88       0.0019
     48  CG2      -10.9510    8.3210   13.0690 C.3    88  ILE88       0.0020
     49  CD1       -9.6460   10.6010   11.4400 C.3    88  ILE88       0.0001
     50  N        -12.5780    6.3090   11.2380 N.am   89  GLN89      -0.1979
     51  CA       -12.2960    5.1620   10.3870 C.3    89  GLN89       0.1601
     52  C        -12.4380    3.8670   11.1560 C.2    89  GLN89       0.2287
     53  O        -12.5310    3.8730   12.3790 O.2    89  GLN89      -0.2864
     54  CB       -10.8660    5.2460    9.8240 C.3    89  GLN89       0.0394
     55  CG        -9.7340    5.1340   10.8610 C.3    89  GLN89       0.0908
     56  CD        -9.0940    3.7480   10.9130 C.2    89  GLN89       0.2608
     57  OE1       -9.7000    2.7870   11.3810 O.2    89  GLN89      -0.2717
     58  NE2       -7.8630    3.6450   10.4210 N.am   89  GLN89      -0.0878
     59  N        -12.4930    3.5340   15.1900 N.3   118  VAL118     -0.1245
     60  CA       -11.7230    4.6040   15.8160 C.3   118  VAL118      0.1561
     61  C        -12.4460    5.9400   15.8440 C.2   118  VAL118      0.2260
     62  O        -12.9060    6.4160   14.8070 O.2   118  VAL118     -0.2867
     63  CB       -10.3750    4.7830   15.0790 C.3   118  VAL118      0.0252
     64  CG1       -9.4970    5.7850   15.8140 C.3   118  VAL118      0.0019
     65  CG2       -9.6700    3.4410   14.9460 C.3   118  VAL118      0.0019
     66  N         -9.3990   18.1570   16.2330 N.3   126  ASP126     -0.1225
     67  CA        -9.0600   17.2250   15.1660 C.3   126  ASP126      0.1805
     68  C         -8.3570   15.9950   15.7200 C.2   126  ASP126      0.2598
     69  O         -7.9910   15.9450   16.8990 O.2   126  ASP126     -0.2718
     70  CB        -8.2020   17.8970   14.0720 C.3   126  ASP126      0.1424
     71  CG        -6.8110   18.2870   14.5490 C.2   126  ASP126      0.3668
     72  OD1       -6.0930   17.4340   15.1090 O.co2 126  ASP126     -0.2456
     73  OD2       -6.4180   19.4540   14.3370 O.co2 126  ASP126     -0.2456
     74  N         -8.1840   14.9970   14.8640 N.am  127  PHE127     -0.1962
     75  CA        -7.5510   13.7500   15.2590 C.3   127  PHE127      0.1771
     76  C         -6.1180   13.9250   15.7500 C.2   127  PHE127      0.2620
     77  O         -5.7190   13.3100   16.7350 O.2   127  PHE127     -0.2715
     78  CB        -7.6000   12.7620   14.0870 C.3   127  PHE127      0.0574
     79  CG        -6.9980   11.4220   14.3930 C.ar  127  PHE127     -0.0200
     80  CD1       -5.6370   11.1920   14.2050 C.ar  127  PHE127     -0.0042
     81  CD2       -7.7880   10.3910   14.8950 C.ar  127  PHE127     -0.0042
     82  CE1       -5.0720    9.9570   14.5080 C.ar  127  PHE127     -0.0003
     83  CE2       -7.2320    9.1530   15.2020 C.ar  127  PHE127     -0.0003
     84  CZ        -5.8710    8.9360   15.0100 C.ar  127  PHE127     -0.0000
     85  N         -5.3480   14.7670   15.0680 N.am  128  GLY128     -0.1940
     86  CA        -3.9620   14.9800   15.4500 C.3   128  GLY128      0.2014
     87  C         -3.7850   15.5810   16.8250 C.2   128  GLY128      0.2638
     88  O         -2.8670   15.2150   17.5590 O.2   128  GLY128     -0.2714
     89  N         -4.6570   16.5180   17.1730 N.am  129  LYS129     -0.1977
     90  CA        -4.5780   17.1460   18.4800 C.3   129  LYS129      0.1596
     91  C         -5.0930   16.1680   19.5220 C.2   129  LYS129      0.2287
     92  O         -4.6140   16.1410   20.6520 O.2   129  LYS129     -0.2864
     93  CB        -5.4030   18.4310   18.5050 C.3   129  LYS129      0.0298
     94  CG        -4.8980   19.4950   17.5440 C.3   129  LYS129      0.0038
     95  CD        -3.4000   19.7200   17.7000 C.3   129  LYS129      0.0206
     96  CE        -3.0580   20.2230   19.0890 C.3   129  LYS129      0.1093
     97  NZ        -3.7310   21.5170   19.3760 N.3   129  LYS129     -0.1314
     98  N         -4.7190   12.9290   19.5870 N.3   131  VAL131     -0.1245
     99  CA        -3.6930   11.9460   19.9330 C.3   131  VAL131      0.1561
    100  C         -2.5400   12.5290   20.7450 C.2   131  VAL131      0.2260
    101  O         -1.4690   11.9330   20.8580 O.2   131  VAL131     -0.2867
    102  CB        -3.1400   11.2340   18.6710 C.3   131  VAL131      0.0252
    103  CG1       -4.2380   10.4070   18.0330 C.3   131  VAL131      0.0019
    104  CG2       -2.5970   12.2440   17.6840 C.3   131  VAL131      0.0019
@<TRIPOS>BOND
     1     7     6    1
     2     2     1    1
     3     2     5    1
     4     2     3    1
     5     5     6    1
     6     6     8    1
     7     3     4    2
     8    32    31   ar
     9     9    10    1
    10    10    11    1
    11    10    13    1
    12    31    33   ar
    13    31    30    1
    14    11    12    2
    15    20    19    2
    16    28    27    2
    17    30    29    1
    18    13    14    1
    19    29    26    1
    20    17    18    1
    21    25    26    1
    22    19    18    1
    23    27    26    1
    24    18    21    1
    25    15    14    2
    26    14    16   am
    27    24    22   am
    28    21    22    1
    29    22    23    2
    30    34    35    1
    31    45    44    2
    32    41    39   ar
    33    54    51    1
    34    54    55    1
    35    35    36    1
    36    35    38    1
    37    51    52    1
    38    51    50    1
    39    58    56   am
    40    36    37    2
    41    44    50   am
    42    44    43    1
    43    39    38    1
    44    39    40   ar
    45    55    56    1
    46    56    57    2
    47    47    49    1
    48    47    46    1
    49    52    53    2
    50    43    46    1
    51    43    42    1
    52    46    48    1
    53    70    71    1
    54    70    67    1
    55    78    79    1
    56    78    75    1
    57    80    79   ar
    58    80    82   ar
    59    73    71   ar
    60    79    81   ar
    61    82    84   ar
    62    71    72   ar
    63    62    61    2
    64    74    75    1
    65    74    68   am
    66    81    83   ar
    67    65    63    1
    68    84    83   ar
    69    85    86    1
    70    85    76   am
    71    63    64    1
    72    63    60    1
    73    67    68    1
    74    67    66    1
    75    59    60    1
    76    75    76    1
    77    86    87    1
    78    68    69    2
    79    76    77    2
    80    60    61    1
    81    87    89   am
    82    87    88    2
    83    89    90    1
    84    94    95    1
    85    94    93    1
    86   104   102    1
    87    95    96    1
    88   103   102    1
    89    90    93    1
    90    90    91    1
    91   102    99    1
    92    96    97    1
    93    91    92    2
    94    98    99    1
    95    99   100    1
    96   100   101    2
