@<TRIPOS>MOLECULE
tmp/2gd8A00.pdb
 173 169 0 0 0
SMALL
GASTEIGER

@<TRIPOS>ATOM
      1  N          7.6460   -0.6380    9.7740 N.3     2  TRP2       -0.1241
      2  CA         7.3640   -1.5070   10.9050 C.3     2  TRP2        0.1605
      3  C          6.2720   -2.4080   10.3420 C.2     2  TRP2        0.2264
      4  O          5.5830   -2.0280    9.3920 O.2     2  TRP2       -0.2867
      5  CB         6.8390   -0.7180   12.1180 C.3     2  TRP2        0.0550
      6  CG         5.5600    0.0470   11.8850 C.ar    2  TRP2        0.0003
      7  CD1        5.4420    1.3740   11.5910 C.ar    2  TRP2        0.0946
      8  CD2        4.2250   -0.4770   11.9170 C.ar    2  TRP2        0.0152
      9  NE1        4.1180    1.7110   11.4380 N.ar    2  TRP2       -0.2442
     10  CE2        3.3500    0.5930   11.6310 C.ar    2  TRP2        0.0810
     11  CE3        3.6850   -1.7480   12.1570 C.ar    2  TRP2        0.0012
     12  CZ2        1.9610    0.4330   11.5780 C.ar    2  TRP2        0.0191
     13  CZ3        2.3030   -1.9080   12.1040 C.ar    2  TRP2        0.0001
     14  CH2        1.4590   -0.8210   11.8170 C.ar    2  TRP2        0.0015
     15  N         -3.3830    0.1780    3.6200 N.3    59  ASN59      -0.1240
     16  CA        -2.2420    0.9690    4.0730 C.3    59  ASN59       0.1653
     17  C         -0.9800    0.1550    4.3280 C.2    59  ASN59       0.2266
     18  O         -0.0360    0.6440    4.9530 O.2    59  ASN59      -0.2867
     19  CB        -2.6170    1.7560    5.3350 C.3    59  ASN59       0.1155
     20  CG        -2.7560    0.8710    6.5550 C.2    59  ASN59       0.2627
     21  OD1       -2.7560   -0.3510    6.4510 O.2    59  ASN59      -0.2716
     22  ND2       -2.8800    1.4900    7.7230 N.am   59  ASN59      -0.0877
     23  N         -0.7530   -2.4530    6.1860 N.3    61  HIS61      -0.1241
     24  CA        -0.8330   -3.1220    7.4850 C.3    61  HIS61       0.1621
     25  C         -2.1900   -3.8040    7.6020 C.2    61  HIS61       0.2264
     26  O         -2.3020   -4.9200    8.1080 O.2    61  HIS61      -0.2867
     27  CB        -0.6630   -2.0950    8.6000 C.3    61  HIS61       0.0745
     28  CG         0.5060   -1.1880    8.3910 C.ar   61  HIS61       0.0817
     29  ND1        1.8090   -1.5950    8.5880 N.ar   61  HIS61      -0.2268
     30  CD2        0.5740    0.0760    7.9100 C.ar   61  HIS61       0.1154
     31  CE1        2.6270   -0.6210    8.2330 C.ar   61  HIS61       0.1986
     32  NE2        1.9010    0.4020    7.8160 N.ar   61  HIS61      -0.2212
     33  N         -8.4540    0.1020    5.6430 N.3    64  ASN64      -0.1240
     34  CA        -9.1960    1.0480    6.4500 C.3    64  ASN64       0.1653
     35  C        -10.3110    1.7370    5.6910 C.2    64  ASN64       0.2266
     36  O        -10.1190    2.1870    4.5620 O.2    64  ASN64      -0.2867
     37  CB        -8.2210    2.0980    6.9880 C.3    64  ASN64       0.1155
     38  CG        -7.0190    1.4740    7.6760 C.2    64  ASN64       0.2627
     39  OD1       -7.0020    1.3110    8.8920 O.2    64  ASN64      -0.2716
     40  ND2       -6.0110    1.1040    6.8910 N.am   64  ASN64      -0.0877
     41  N        -12.5780    6.3090   11.2380 N.3    89  GLN89      -0.1245
     42  CA       -12.2960    5.1620   10.3870 C.3    89  GLN89       0.1566
     43  C        -12.4380    3.8670   11.1560 C.2    89  GLN89       0.2260
     44  O        -12.5310    3.8730   12.3790 O.2    89  GLN89      -0.2867
     45  CB       -10.8660    5.2460    9.8240 C.3    89  GLN89       0.0367
     46  CG        -9.7340    5.1340   10.8610 C.3    89  GLN89       0.0905
     47  CD        -9.0940    3.7480   10.9130 C.2    89  GLN89       0.2608
     48  OE1       -9.7000    2.7870   11.3810 O.2    89  GLN89      -0.2717
     49  NE2       -7.8630    3.6450   10.4210 N.am   89  GLN89      -0.0878
     50  N        -11.1300   -0.5010   10.8920 N.3    91  HIS91      -0.1241
     51  CA       -10.2470   -1.4590   10.2510 C.3    91  HIS91       0.1621
     52  C        -10.3160   -2.7360   11.0610 C.2    91  HIS91       0.2264
     53  O        -10.9480   -2.7700   12.1150 O.2    91  HIS91      -0.2867
     54  CB        -8.8070   -0.9530   10.2590 C.3    91  HIS91       0.0745
     55  CG        -8.2680   -0.7180   11.6340 C.ar   91  HIS91       0.0817
     56  ND1       -8.4570    0.4660   12.3130 N.ar   91  HIS91      -0.2268
     57  CD2       -7.6080   -1.5410   12.4840 C.ar   91  HIS91       0.1154
     58  CE1       -7.9390    0.3620   13.5250 C.ar   91  HIS91       0.1986
     59  NE2       -7.4180   -0.8460   13.6540 N.ar   91  HIS91      -0.2212
     60  N         -8.0950   -6.5680   12.3120 N.3    93  HIS93      -0.1241
     61  CA        -6.8490   -7.2740   12.5790 C.3    93  HIS93       0.1621
     62  C         -7.3200   -8.7140   12.4540 C.2    93  HIS93       0.2264
     63  O         -8.3800   -9.0630   12.9760 O.2    93  HIS93      -0.2867
     64  CB        -6.3580   -7.0190   14.0020 C.3    93  HIS93       0.0745
     65  CG        -5.9970   -5.5940   14.2630 C.ar   93  HIS93       0.0817
     66  ND1       -4.7130   -5.1090   14.1290 N.ar   93  HIS93      -0.2268
     67  CD2       -6.7630   -4.5400   14.6280 C.ar   93  HIS93       0.1154
     68  CE1       -4.7050   -3.8170   14.4060 C.ar   93  HIS93       0.1986
     69  NE2       -5.9360   -3.4470   14.7110 N.ar   93  HIS93      -0.2212
     70  N        -11.9830   -2.6610   14.7420 N.3   116  HIS116     -0.1241
     71  CA       -11.7240   -1.4520   15.5150 C.3   116  HIS116      0.1621
     72  C        -12.3540   -0.2380   14.8510 C.2   116  HIS116      0.2264
     73  O        -12.0130    0.1020   13.7170 O.2   116  HIS116     -0.2867
     74  CB       -10.2210   -1.2180   15.6530 C.3   116  HIS116      0.0745
     75  CG        -9.5500   -2.1800   16.5780 C.ar  116  HIS116      0.0817
     76  ND1       -8.1890   -2.4020   16.5620 N.ar  116  HIS116     -0.2268
     77  CD2      -10.0510   -2.9740   17.5520 C.ar  116  HIS116      0.1154
     78  CE1       -7.8830   -3.2970   17.4850 C.ar  116  HIS116      0.1986
     79  NE2       -8.9940   -3.6600   18.0980 N.ar  116  HIS116     -0.2212
     80  N        -12.4930    3.5340   15.1900 N.3   118  VAL118     -0.1245
     81  CA       -11.7230    4.6040   15.8160 C.3   118  VAL118      0.1561
     82  C        -12.4460    5.9400   15.8440 C.2   118  VAL118      0.2260
     83  O        -12.9060    6.4160   14.8070 O.2   118  VAL118     -0.2867
     84  CB       -10.3750    4.7830   15.0790 C.3   118  VAL118      0.0252
     85  CG1       -9.4970    5.7850   15.8140 C.3   118  VAL118      0.0019
     86  CG2       -9.6700    3.4410   14.9460 C.3   118  VAL118      0.0019
     87  N         -8.1840   14.9970   14.8640 N.3   127  PHE127     -0.1227
     88  CA        -7.5510   13.7500   15.2590 C.3   127  PHE127      0.1736
     89  C         -6.1180   13.9250   15.7500 C.2   127  PHE127      0.2596
     90  O         -5.7190   13.3100   16.7350 O.2   127  PHE127     -0.2718
     91  CB        -7.6000   12.7620   14.0870 C.3   127  PHE127      0.0547
     92  CG        -6.9980   11.4220   14.3930 C.ar  127  PHE127     -0.0202
     93  CD1       -5.6370   11.1920   14.2050 C.ar  127  PHE127     -0.0042
     94  CD2       -7.7880   10.3910   14.8950 C.ar  127  PHE127     -0.0042
     95  CE1       -5.0720    9.9570   14.5080 C.ar  127  PHE127     -0.0003
     96  CE2       -7.2320    9.1530   15.2020 C.ar  127  PHE127     -0.0003
     97  CZ        -5.8710    8.9360   15.0100 C.ar  127  PHE127     -0.0000
     98  N         -5.3480   14.7670   15.0680 N.am  128  GLY128     -0.1957
     99  CA        -3.9620   14.9800   15.4500 C.3   128  GLY128      0.1869
    100  C         -3.7850   15.5810   16.8250 C.2   128  GLY128      0.2309
    101  O         -2.8670   15.2150   17.5590 O.2   128  GLY128     -0.2863
    102  N         -4.7190   12.9290   19.5870 N.3   131  VAL131     -0.1245
    103  CA        -3.6930   11.9460   19.9330 C.3   131  VAL131      0.1561
    104  C         -2.5400   12.5290   20.7450 C.2   131  VAL131      0.2260
    105  O         -1.4690   11.9330   20.8580 O.2   131  VAL131     -0.2867
    106  CB        -3.1400   11.2340   18.6710 C.3   131  VAL131      0.0252
    107  CG1       -4.2380   10.4070   18.0330 C.3   131  VAL131      0.0019
    108  CG2       -2.5970   12.2440   17.6840 C.3   131  VAL131      0.0019
    109  N        -11.8060    3.7330   21.0660 N.3   139  VAL139     -0.1245
    110  CA       -11.8840    2.7170   20.0340 C.3   139  VAL139      0.1561
    111  C        -12.8520    1.6560   20.4930 C.2   139  VAL139      0.2260
    112  O        -12.7430    1.1360   21.6040 O.2   139  VAL139     -0.2867
    113  CB       -10.5150    2.0690   19.7370 C.3   139  VAL139      0.0252
    114  CG1      -10.6620    1.0450   18.5960 C.3   139  VAL139      0.0019
    115  CG2       -9.5190    3.1420   19.3310 C.3   139  VAL139      0.0019
    116  N         -2.8400    2.9720   21.2090 N.3   194  LEU194     -0.1231
    117  CA        -3.0070    2.5570   19.8270 C.3   194  LEU194      0.1693
    118  C         -2.2870    1.2110   19.8420 C.2   194  LEU194      0.2593
    119  O         -1.3150    1.0410   20.5840 O.2   194  LEU194     -0.2718
    120  CB        -2.2620    3.5060   18.8900 C.3   194  LEU194      0.0284
    121  CG        -2.6450    4.9820   18.9240 C.3   194  LEU194      0.0019
    122  CD1       -1.8080    5.7380   17.8990 C.3   194  LEU194      0.0001
    123  CD2       -4.1300    5.1360   18.6360 C.3   194  LEU194      0.0001
    124  N         -2.7360    0.2550   19.0370 N.am  195  THR195     -0.1939
    125  CA        -2.0790   -1.0490   19.0300 C.3   195  THR195      0.2028
    126  C         -1.0160   -1.1860   17.9470 C.2   195  THR195      0.2643
    127  O         -0.4170   -2.2480   17.7860 O.2   195  THR195     -0.2714
    128  CB        -3.0910   -2.1870   18.8870 C.3   195  THR195      0.1808
    129  OG1       -3.7290   -2.1060   17.6090 O.3   195  THR195     -0.2208
    130  CG2       -4.1310   -2.1100   19.9940 C.3   195  THR195      0.0379
    131  N         -0.7890   -0.1070   17.2060 N.am  196  THR196     -0.1937
    132  CA         0.2400   -0.0850   16.1730 C.3   196  THR196      0.2013
    133  C          1.0490    1.1820   16.3940 C.2   196  THR196      0.2484
    134  O          0.5830    2.1210   17.0440 O.2   196  THR196     -0.2729
    135  CB        -0.3400    0.0250   14.7370 C.3   196  THR196      0.1807
    136  OG1       -0.9170    1.3250   14.5580 O.3   196  THR196     -0.2208
    137  CG2       -1.3910   -1.0330   14.4820 C.3   196  THR196      0.0379
    138  N          2.2880    1.2190   15.8860 N.am  197  PRO197     -0.2715
    139  CA         3.0750    2.4380   16.0670 C.3   197  PRO197      0.1521
    140  C          2.2030    3.5780   15.5340 C.2   197  PRO197      0.2440
    141  O          1.4600    3.3920   14.5670 O.2   197  PRO197     -0.2731
    142  CB         4.2930    2.1770   15.1910 C.3   197  PRO197      0.0310
    143  CG         4.5130    0.7100   15.3920 C.3   197  PRO197      0.0237
    144  CD         3.1060    0.1380   15.3060 C.3   197  PRO197      0.0939
    145  N          2.3000    4.7780   16.1240 N.am  198  PRO198     -0.2727
    146  CA         3.1480    5.2010   17.2430 C.3   198  PRO198      0.1402
    147  C          2.8080    4.7260   18.6610 C.2   198  PRO198      0.2269
    148  O          3.4150    5.1970   19.6190 O.2   198  PRO198     -0.2865
    149  CB         3.1260    6.7190   17.1220 C.3   198  PRO198      0.0296
    150  CG         1.7400    6.9800   16.6550 C.3   198  PRO198      0.0237
    151  CD         1.5290    5.9190   15.5950 C.3   198  PRO198      0.0939
    152  N          0.6160    5.4390   20.7720 N.3   200  LEU200     -0.1245
    153  CA         0.2720    6.5160   21.6960 C.3   200  LEU200      0.1561
    154  C         -0.7850    6.1040   22.7150 C.2   200  LEU200      0.2260
    155  O         -1.7770    5.4610   22.3810 O.2   200  LEU200     -0.2867
    156  CB        -0.1880    7.7420   20.9030 C.3   200  LEU200      0.0270
    157  CG         0.8450    8.2080   19.8710 C.3   200  LEU200      0.0019
    158  CD1        0.2510    9.2990   18.9980 C.3   200  LEU200      0.0001
    159  CD2        2.0900    8.7060   20.5820 C.3   200  LEU200      0.0001
    160  N        -10.5450    2.2890   25.6620 N.3   205  TRP205     -0.1241
    161  CA       -10.9940    1.1130   24.9410 C.3   205  TRP205      0.1605
    162  C        -12.3440    0.6320   25.4270 C.2   205  TRP205      0.2264
    163  O        -12.6040    0.5740   26.6230 O.2   205  TRP205     -0.2867
    164  CB        -9.9740   -0.0220   25.0840 C.3   205  TRP205      0.0550
    165  CG        -8.8410    0.0920   24.1240 C.ar  205  TRP205      0.0003
    166  CD1       -7.6350    0.7000   24.3310 C.ar  205  TRP205      0.0946
    167  CD2       -8.8420   -0.3480   22.7620 C.ar  205  TRP205      0.0152
    168  NE1       -6.8900    0.6700   23.1770 N.ar  205  TRP205     -0.2442
    169  CE2       -7.6070    0.0320   22.1990 C.ar  205  TRP205      0.0810
    170  CE3       -9.7740   -1.0260   21.9620 C.ar  205  TRP205      0.0012
    171  CZ2       -7.2750   -0.2410   20.8700 C.ar  205  TRP205      0.0191
    172  CZ3       -9.4450   -1.3000   20.6400 C.ar  205  TRP205      0.0001
    173  CH2       -8.2040   -0.9070   20.1080 C.ar  205  TRP205      0.0015
@<TRIPOS>BOND
     1    15    16    1
     2    16    17    1
     3    16    19    1
     4    17    18    2
     5    36    35    2
     6    19    20    1
     7    33    34    1
     8    35    34    1
     9    23    24    1
    10    34    37    1
    11    21    20    2
    12    20    22   am
    13    40    38   am
    14    37    38    1
    15    24    25    1
    16    24    27    1
    17    25    26    2
    18    38    39    2
    19    32    30   ar
    20    32    31   ar
    21    30    28   ar
    22    31    29   ar
    23    28    29   ar
    24    28    27    1
    25     4     3    2
    26     1     2    1
    27    45    42    1
    28    45    46    1
    29    51    54    1
    30    51    50    1
    31    51    52    1
    32    54    55    1
    33     3     2    1
    34    42    43    1
    35    42    41    1
    36    49    47   am
    37    46    47    1
    38     2     5    1
    39    47    48    2
    40    52    53    2
    41    43    44    2
    42     9     7   ar
    43     9    10   ar
    44    12    10   ar
    45    12    14   ar
    46     7     6   ar
    47    10     8   ar
    48    55    56   ar
    49    55    57   ar
    50    14    13   ar
    51     6     8   ar
    52     6     5    1
    53     8    11   ar
    54    13    11   ar
    55    60    61    1
    56    56    58   ar
    57    62    61    1
    58    62    63    2
    59    57    59   ar
    60    61    64    1
    61    58    59   ar
    62    73    72    2
    63    64    65    1
    64    91    92    1
    65    91    88    1
    66    66    65   ar
    67    66    68   ar
    68    93    92   ar
    69    93    95   ar
    70    65    67   ar
    71    92    94   ar
    72    68    69   ar
    73   137   135    1
    74    95    97   ar
    75   136   135    1
    76   141   140    2
    77    67    69   ar
    78   135   132    1
    79    70    71    1
    80    83    82    2
    81    72    71    1
    82    87    88    1
    83    94    96   ar
    84    86    84    1
    85    97    96   ar
    86    98    99    1
    87    98    89   am
    88    84    85    1
    89    84    81    1
    90    80    81    1
    91   142   143    1
    92   142   139    1
    93    88    89    1
    94   144   143    1
    95   144   138    1
    96    99   100    1
    97    71    74    1
    98   140   139    1
    99   140   145   am
   100   151   145    1
   101   151   150    1
   102    74    75    1
   103    89    90    2
   104    81    82    1
   105   138   139    1
   106   138   133   am
   107   145   146    1
   108   132   133    1
   109   132   131    1
   110   133   134    2
   111    76    75   ar
   112    76    78   ar
   113    75    77   ar
   114   150   149    1
   115   100   101    2
   116   149   146    1
   117   131   126   am
   118   146   147    1
   119    78    79   ar
   120    77    79   ar
   121   129   128    1
   122   108   106    1
   123   127   126    2
   124   122   121    1
   125   126   125    1
   126   107   106    1
   127   114   113    1
   128   123   121    1
   129   147   148    2
   130   106   103    1
   131   128   125    1
   132   128   130    1
   133   120   121    1
   134   120   117    1
   135   158   157    1
   136   125   124    1
   137   124   118   am
   138   115   113    1
   139   102   103    1
   140   113   110    1
   141   117   118    1
   142   117   116    1
   143   118   119    2
   144   157   159    1
   145   157   156    1
   146   103   104    1
   147   110   111    1
   148   110   109    1
   149   173   172   ar
   150   173   171   ar
   151   111   112    2
   152   172   170   ar
   153   104   105    2
   154   152   153    1
   155   171   169   ar
   156   156   153    1
   157   153   154    1
   158   170   167   ar
   159   169   167   ar
   160   169   168   ar
   161   155   154    2
   162   167   165   ar
   163   168   166   ar
   164   165   166   ar
   165   165   164    1
   166   161   164    1
   167   161   162    1
   168   161   160    1
   169   162   163    2
