@<TRIPOS>MOLECULE
tmp/2gdeB01.pdb
 212 210 0 0 0
SMALL
GASTEIGER

@<TRIPOS>ATOM
      1  N         22.9060   -6.2970   17.6380 N.3    43  HIS43      -0.1241
      2  CA        22.7980   -7.6890   17.2000 C.3    43  HIS43       0.1621
      3  C         21.9710   -7.8460   15.9030 C.2    43  HIS43       0.2264
      4  O         21.9380   -8.9240   15.3120 O.2    43  HIS43      -0.2867
      5  CB        22.2270   -8.5630   18.3370 C.3    43  HIS43       0.0745
      6  CG        20.7330   -8.5390   18.4250 C.ar   43  HIS43       0.0817
      7  ND1       20.0510   -7.8490   19.4060 N.ar   43  HIS43      -0.2268
      8  CD2       19.7880   -9.1260   17.6500 C.ar   43  HIS43       0.1154
      9  CE1       18.7510   -8.0060   19.2300 C.ar   43  HIS43       0.1986
     10  NE2       18.5620   -8.7720   18.1690 N.ar   43  HIS43      -0.2212
     11  N         26.2550  -10.2330   14.4900 N.3    47  TYR47      -0.1241
     12  CA        26.1480  -11.3770   15.3920 C.3    47  TYR47       0.1605
     13  C         27.0010  -12.5630   14.8960 C.2    47  TYR47       0.2264
     14  O         26.4900  -13.4810   14.2500 O.2    47  TYR47      -0.2867
     15  CB        24.7010  -11.7910   15.6530 C.3    47  TYR47       0.0534
     16  CG        24.6060  -12.7140   16.8420 C.ar   47  TYR47      -0.0201
     17  CD1       24.8850  -12.2420   18.1350 C.ar   47  TYR47      -0.0009
     18  CD2       24.2680  -14.0650   16.6810 C.ar   47  TYR47      -0.0009
     19  CE1       24.8000  -13.0780   19.2410 C.ar   47  TYR47       0.0417
     20  CE2       24.1820  -14.9230   17.7850 C.ar   47  TYR47       0.0417
     21  CZ        24.4560  -14.4190   19.0600 C.ar   47  TYR47       0.1957
     22  OH        24.3950  -15.2550   20.1590 O.3    47  TYR47      -0.2866
     23  N         26.3810  -16.5570   14.5680 N.3    50  TRP50      -0.1241
     24  CA        25.4960  -16.9710   13.4910 C.3    50  TRP50       0.1605
     25  C         25.9620  -16.4130   12.1490 C.2    50  TRP50       0.2264
     26  O         25.2010  -16.4360   11.1970 O.2    50  TRP50      -0.2867
     27  CB        24.0820  -16.4440   13.7500 C.3    50  TRP50       0.0550
     28  CG        23.2520  -17.2120   14.7670 C.ar   50  TRP50       0.0003
     29  CD1       23.7040  -18.0540   15.7450 C.ar   50  TRP50       0.0946
     30  CD2       21.8200  -17.1620   14.9090 C.ar   50  TRP50       0.0152
     31  NE1       22.6400  -18.5410   16.4770 N.ar   50  TRP50      -0.2442
     32  CE2       21.4760  -18.0140   15.9790 C.ar   50  TRP50       0.0810
     33  CE3       20.7950  -16.4900   14.2170 C.ar   50  TRP50       0.0012
     34  CZ2       20.1480  -18.2140   16.3870 C.ar   50  TRP50       0.0191
     35  CZ3       19.4680  -16.6800   14.6280 C.ar   50  TRP50       0.0001
     36  CH2       19.1590  -17.5330   15.7100 C.ar   50  TRP50       0.0015
     37  N         26.3670  -13.4210   11.0330 N.3    52  LYS52      -0.1245
     38  CA        25.7700  -12.1380   10.6480 C.3    52  LYS52       0.1561
     39  C         26.7380  -10.9840   10.8700 C.2    52  LYS52       0.2260
     40  O         27.2170  -10.7700   11.9930 O.2    52  LYS52      -0.2867
     41  CB        24.4740  -11.9160   11.4330 C.3    52  LYS52       0.0271
     42  CG        23.9840  -10.4640   11.4320 C.3    52  LYS52       0.0035
     43  CD        22.8680  -10.3000   12.4210 C.3    52  LYS52       0.0206
     44  CE        21.5590  -10.8050   11.8690 C.3    52  LYS52       0.1093
     45  NZ        20.6140  -11.0000   12.9890 N.3    52  LYS52      -0.1314
     46  N         26.1790  -11.9060   26.6050 N.3    95  ASN95      -0.1225
     47  CA        24.8420  -11.5340   27.0930 C.3    95  ASN95       0.1785
     48  C         24.2370  -10.3430   26.3670 C.2    95  ASN95       0.2597
     49  O         23.1990   -9.8400   26.7790 O.2    95  ASN95      -0.2718
     50  CB        24.8860  -11.2420   28.5960 C.3    95  ASN95       0.1169
     51  CG        25.8650  -10.1390   28.9630 C.2    95  ASN95       0.2627
     52  OD1       26.5920   -9.5980   28.1110 O.2    95  ASN95      -0.2716
     53  ND2       25.9300   -9.8340   30.2560 N.am   95  ASN95      -0.0877
     54  N         24.9090   -9.8710   25.3100 N.am   96  LEU96      -0.1980
     55  CA        24.4380   -8.6840   24.5340 C.3    96  LEU96       0.1596
     56  C         24.4840   -7.3910   25.3240 C.2    96  LEU96       0.2287
     57  O         23.6760   -6.4670   25.1130 O.2    96  LEU96      -0.2864
     58  CB        23.0340   -8.8770   23.9080 C.3    96  LEU96       0.0297
     59  CG        22.7230  -10.1330   23.1040 C.3    96  LEU96       0.0022
     60  CD1       21.3220  -10.0680   22.6140 C.3    96  LEU96       0.0001
     61  CD2       23.6730  -10.2710   21.9280 C.3    96  LEU96       0.0001
     62  N          5.2790  -16.5490   20.0580 N.3   146  GLU146     -0.1245
     63  CA         6.6310  -17.0810   20.1920 C.3   146  GLU146      0.1567
     64  C          7.0030  -18.1050   19.1170 C.2   146  GLU146      0.2260
     65  O          8.0690  -17.9940   18.5010 O.2   146  GLU146     -0.2867
     66  CB         6.8780  -17.6470   21.5870 C.3   146  GLU146      0.0388
     67  CG         8.3440  -17.8740   21.8440 C.3   146  GLU146      0.1160
     68  CD         8.6170  -18.7260   23.0540 C.2   146  GLU146      0.3649
     69  OE1        9.4750  -19.6200   22.9220 O.co2 146  GLU146     -0.2457
     70  OE2        8.0080  -18.4970   24.1260 O.co2 146  GLU146     -0.2457
     71  N         20.6660  -15.4860   32.3930 N.3   172  ILE172     -0.1245
     72  CA        21.6790  -14.6190   31.7950 C.3   172  ILE172      0.1561
     73  C         22.1810  -13.6040   32.8180 C.2   172  ILE172      0.2260
     74  O         21.4150  -13.1220   33.6580 O.2   172  ILE172     -0.2867
     75  CB        21.1040  -13.8690   30.5290 C.3   172  ILE172      0.0252
     76  CG1       20.5300  -14.8710   29.5130 C.3   172  ILE172      0.0019
     77  CG2       22.1550  -12.9370   29.8740 C.3   172  ILE172      0.0019
     78  CD1       21.5530  -15.8200   28.8560 C.3   172  ILE172      0.0001
     79  N          4.5780   -8.5150   25.2490 N.3   192  ASP192     -0.1225
     80  CA         6.0230   -8.5860   25.1150 C.3   192  ASP192      0.1805
     81  C          6.4140   -8.2560   23.6910 C.2   192  ASP192      0.2598
     82  O          5.6000   -8.3210   22.7760 O.2   192  ASP192     -0.2718
     83  CB         6.5490   -9.9850   25.5100 C.3   192  ASP192      0.1424
     84  CG         8.0820  -10.0330   25.7620 C.2   192  ASP192      0.3668
     85  OD1        8.5750  -11.1600   25.9900 O.co2 192  ASP192     -0.2456
     86  OD2        8.7950   -8.9940   25.7610 O.co2 192  ASP192     -0.2456
     87  N          7.6660   -7.8400   23.5260 N.am  193  ALA193     -0.1966
     88  CA         8.3010   -7.8080   22.2440 C.3   193  ALA193      0.1728
     89  C          8.6890   -9.2510   21.9150 C.2   193  ALA193      0.2616
     90  O          8.5290  -10.1600   22.7460 O.2   193  ALA193     -0.2715
     91  CB         9.5250   -6.9000   22.3010 C.3   193  ALA193      0.0334
     92  N          9.1990   -9.4790   20.7120 N.am  194  CYS194     -0.1954
     93  CA         9.4930  -10.8280   20.2630 C.3   194  CYS194      0.1843
     94  C         10.4730  -10.7040   19.0890 C.2   194  CYS194      0.2625
     95  O         10.9110   -9.5880   18.7880 O.2   194  CYS194     -0.2714
     96  CB         8.1850  -11.5540   19.8750 C.3   194  CYS194      0.0997
     97  SG         8.2900  -13.4010   19.8630 S.3   194  CYS194     -0.0797
     98  N         10.8350  -11.8160   18.4440 N.am  195  GLU195     -0.1977
     99  CA        11.7330  -11.7610   17.2780 C.3   195  GLU195      0.1602
    100  C         11.1200  -10.8700   16.2120 C.2   195  GLU195      0.2287
    101  O          9.8970  -10.8910   16.0330 O.2   195  GLU195     -0.2864
    102  CB        11.9550  -13.1590   16.6890 C.3   195  GLU195      0.0415
    103  CG        12.9690  -13.2250   15.5060 C.3   195  GLU195      0.1163
    104  CD        12.9680  -14.5850   14.7640 C.2   195  GLU195      0.3649
    105  OE1       12.2950  -15.5530   15.2290 O.co2 195  GLU195     -0.2457
    106  OE2       13.6610  -14.6820   13.7120 O.co2 195  GLU195     -0.2457
    107  N         13.1910   -6.5670   17.3780 N.3   198  SER198     -0.1217
    108  CA        14.5240   -6.2970   17.7860 C.3   198  SER198      0.1889
    109  C         14.9590   -4.9380   17.2730 C.2   198  SER198      0.2288
    110  O         14.5790   -4.5730   16.1730 O.2   198  SER198     -0.2866
    111  CB        15.3540   -7.3980   17.1890 C.3   198  SER198      0.2089
    112  OG        16.2520   -7.8040   18.1580 O.3   198  SER198     -0.2183
    113  N         14.7740   -2.6520   21.9560 N.3   218  VAL218     -0.1231
    114  CA        14.4310   -4.0960   22.0670 C.3   218  VAL218      0.1692
    115  C         15.6680   -4.9230   21.8210 C.2   218  VAL218      0.2593
    116  O         16.2930   -4.7950   20.7800 O.2   218  VAL218     -0.2718
    117  CB        13.2840   -4.5550   21.1080 C.3   218  VAL218      0.0266
    118  CG1       12.9210   -6.0700   21.3330 C.3   218  VAL218      0.0020
    119  CG2       12.0090   -3.7130   21.3370 C.3   218  VAL218      0.0020
    120  N         16.0180   -5.7600   22.8010 N.am  219  SER219     -0.1938
    121  CA        17.2840   -6.4650   22.8060 C.3   219  SER219      0.2055
    122  C         17.1660   -7.9900   22.8090 C.2   219  SER219      0.2643
    123  O         17.5670   -8.6400   21.8250 O.2   219  SER219     -0.2714
    124  CB        18.1630   -5.9690   23.9640 C.3   219  SER219      0.2130
    125  OG        19.4840   -6.4450   23.7810 O.3   219  SER219     -0.2179
    126  N         16.6370   -8.5590   23.8930 N.am  220  TRP220     -0.1959
    127  CA        16.4770  -10.0110   24.0270 C.3   220  TRP220      0.1771
    128  C         15.4510  -10.4180   25.0760 C.2   220  TRP220      0.2620
    129  O         14.9460   -9.6000   25.8150 O.2   220  TRP220     -0.2715
    130  CB        17.8080  -10.6430   24.4140 C.3   220  TRP220      0.0590
    131  CG        18.3800  -10.1630   25.7460 C.ar  220  TRP220      0.0006
    132  CD1       19.1480   -9.0510   25.9500 C.ar  220  TRP220      0.0946
    133  CD2       18.2720  -10.8170   27.0200 C.ar  220  TRP220      0.0152
    134  NE1       19.5340   -8.9710   27.2510 N.ar  220  TRP220     -0.2442
    135  CE2       18.9880  -10.0250   27.9480 C.ar  220  TRP220      0.0810
    136  CE3       17.6030  -11.9810   27.4790 C.ar  220  TRP220      0.0012
    137  CZ2       19.0910  -10.3730   29.3140 C.ar  220  TRP220      0.0191
    138  CZ3       17.6930  -12.3320   28.8430 C.ar  220  TRP220      0.0001
    139  CH2       18.4240  -11.5290   29.7470 C.ar  220  TRP220      0.0015
    140  N         15.1800  -11.7150   25.1530 N.am  221  GLY221     -0.1940
    141  CA        14.3070  -12.2630   26.1840 C.3   221  GLY221      0.2014
    142  C         14.1910  -13.7700   26.0290 C.2   221  GLY221      0.2639
    143  O         14.3760  -14.3200   24.9380 O.2   221  GLY221     -0.2714
    144  N         13.9060  -14.4450   27.1300 N.am  222  GLU222     -0.1963
    145  CA        13.7100  -15.9090   27.1050 C.3   222  GLU222      0.1733
    146  C         12.2850  -16.1750   26.5700 C.2   222  GLU222      0.2617
    147  O         11.3060  -15.9930   27.3030 O.2   222  GLU222     -0.2715
    148  CB        13.8680  -16.4870   28.5310 C.3   222  GLU222      0.0429
    149  CG        15.0410  -15.9410   29.3650 C.3   222  GLU222      0.1163
    150  CD        15.3990  -16.8250   30.5750 C.2   222  GLU222      0.3649
    151  OE1       14.5560  -17.6690   31.0180 O.co2 222  GLU222     -0.2457
    152  OE2       16.5390  -16.6770   31.0720 O.co2 222  GLU222     -0.2457
    153  N         12.1680  -16.5660   25.3110 N.am  223  GLY223     -0.1940
    154  CA        10.8570  -16.6930   24.6800 C.3   223  GLY223      0.2014
    155  C         10.1690  -15.3350   24.5170 C.2   223  GLY223      0.2639
    156  O         10.8340  -14.2890   24.5390 O.2   223  GLY223     -0.2714
    157  N          8.8450  -15.3480   24.3470 N.am  224  CYS224     -0.1967
    158  CA         8.0480  -14.1050   24.2460 C.3   224  CYS224      0.1712
    159  C          6.7590  -14.2050   25.0440 C.2   224  CYS224      0.2296
    160  O          5.9800  -15.1280   24.8290 O.2   224  CYS224     -0.2864
    161  CB         7.6960  -13.8230   22.7980 C.3   224  CYS224      0.0983
    162  SG         9.0720  -13.8790   21.6890 S.3   224  CYS224     -0.0798
    163  N          6.0910  -15.1060   28.1820 N.3   226  ARG226     -0.1245
    164  CA         5.9750  -16.2260   29.1150 C.3   226  ARG226      0.1563
    165  C          5.7380  -15.6680   30.5120 C.2   226  ARG226      0.2260
    166  O          6.2070  -14.5690   30.8340 O.2   226  ARG226     -0.2867
    167  CB         7.2460  -17.0760   29.0950 C.3   226  ARG226      0.0307
    168  CG         7.6600  -17.6250   27.7220 C.3   226  ARG226      0.0489
    169  CD         8.6400  -18.8040   27.9040 C.3   226  ARG226      0.2205
    170  NE         9.1910  -19.3110   26.6420 N.pl3 226  ARG226     -0.0865
    171  CZ        10.3770  -19.9110   26.5280 C.cat 226  ARG226      0.5346
    172  NH1       10.8030  -20.3290   25.3410 N.pl3 226  ARG226      0.1354
    173  NH2       11.1440  -20.0920   27.6030 N.pl3 226  ARG226      0.1354
    174  N         10.6030  -11.7260   31.2880 N.3   230  TYR230     -0.1227
    175  CA        10.4550  -10.3230   30.9260 C.3   230  TYR230      0.1736
    176  C         11.2930  -10.0020   29.6750 C.2   230  TYR230      0.2596
    177  O         12.2840  -10.6910   29.3850 O.2   230  TYR230     -0.2718
    178  CB        10.8300   -9.4450   32.1200 C.3   230  TYR230      0.0548
    179  CG        10.0250   -9.7550   33.3750 C.ar  230  TYR230     -0.0200
    180  CD1       10.4260  -10.7700   34.2790 C.ar  230  TYR230     -0.0009
    181  CD2        8.8480   -9.0440   33.6550 C.ar  230  TYR230     -0.0009
    182  CE1        9.6600  -11.0660   35.4320 C.ar  230  TYR230      0.0417
    183  CE2        8.0760   -9.3230   34.7910 C.ar  230  TYR230      0.0417
    184  CZ         8.4790  -10.3270   35.6700 C.ar  230  TYR230      0.1957
    185  OH         7.6930  -10.5490   36.7760 O.3   230  TYR230     -0.2866
    186  N         10.8760   -8.9850   28.9150 N.am  231  GLY231     -0.1942
    187  CA        11.6910   -8.4970   27.8060 C.3   231  GLY231      0.2014
    188  C         12.8380   -7.6440   28.3220 C.2   231  GLY231      0.2639
    189  O         12.6740   -6.8530   29.2630 O.2   231  GLY231     -0.2714
    190  N         14.0030   -7.7920   27.6920 N.am  232  PHE232     -0.1959
    191  CA        15.1660   -7.0210   28.0890 C.3   232  PHE232      0.1771
    192  C         15.5390   -5.9720   27.0110 C.2   232  PHE232      0.2619
    193  O         15.4470   -6.2480   25.8050 O.2   232  PHE232     -0.2715
    194  CB        16.3370   -7.9700   28.4070 C.3   232  PHE232      0.0574
    195  CG        16.2860   -8.5600   29.7980 C.ar  232  PHE232     -0.0200
    196  CD1       15.5280   -9.6950   30.0610 C.ar  232  PHE232     -0.0042
    197  CD2       16.9550   -7.9520   30.8460 C.ar  232  PHE232     -0.0042
    198  CE1       15.4460  -10.2210   31.3540 C.ar  232  PHE232     -0.0003
    199  CE2       16.9050   -8.4770   32.1300 C.ar  232  PHE232     -0.0003
    200  CZ        16.1340   -9.6260   32.3780 C.ar  232  PHE232     -0.0000
    201  N         15.9420   -4.7830   27.4710 N.am  233  TYR233     -0.1974
    202  CA        16.1110   -3.5920   26.6140 C.3   233  TYR233      0.1639
    203  C         17.4720   -2.9600   26.8370 C.2   233  TYR233      0.2290
    204  O         17.9470   -2.9330   27.9550 O.2   233  TYR233     -0.2864
    205  CB        14.9670   -2.5610   26.9000 C.3   233  TYR233      0.0560
    206  CG        13.6220   -3.1310   26.5530 C.ar  233  TYR233     -0.0198
    207  CD1       12.8970   -3.9100   27.4870 C.ar  233  TYR233     -0.0009
    208  CD2       13.0760   -2.9340   25.2980 C.ar  233  TYR233     -0.0009
    209  CE1       11.6700   -4.4800   27.1300 C.ar  233  TYR233      0.0417
    210  CE2       11.8680   -3.4700   24.9440 C.ar  233  TYR233      0.0417
    211  CZ        11.1650   -4.2470   25.8660 C.ar  233  TYR233      0.1957
    212  OH         9.9850   -4.8120   25.4910 O.3   233  TYR233     -0.2866
@<TRIPOS>BOND
     1    38    39    1
     2    38    37    1
     3    38    41    1
     4    39    40    2
     5    26    25    2
     6    42    41    1
     7    42    43    1
     8    44    43    1
     9    44    45    1
    10    25    24    1
    11    24    27    1
    12    24    23    1
    13   106   104   ar
    14    27    28    1
    15    33    35   ar
    16    33    30   ar
    17    14    13    2
    18    11    12    1
    19    35    36   ar
    20   104   105   ar
    21   104   103    1
    22    28    30   ar
    23    28    29   ar
    24    13    12    1
    25    30    32   ar
    26     4     3    2
    27    12    15    1
    28   103   102    1
    29    15    16    1
    30    36    34   ar
    31    29    31   ar
    32     3     2    1
    33    32    34   ar
    34    32    31   ar
    35   101   100    2
    36   110   109    2
    37   100    99    1
    38    18    16   ar
    39    18    20   ar
    40   102    99    1
    41    16    17   ar
    42   111   108    1
    43   111   112    1
    44     2     1    1
    45     2     5    1
    46   109   108    1
    47    99    98    1
    48   107   108    1
    49     8    10   ar
    50     8     6   ar
    51    20    21   ar
    52    17    19   ar
    53    10     9   ar
    54     5     6    1
    55     6     7   ar
    56    98    94   am
    57    65    64    2
    58    95    94    2
    59    21    19   ar
    60    21    22    1
    61    94    93    1
    62    64    63    1
    63     9     7   ar
    64    97    96    1
    65    97   162    1
    66    96    93    1
    67    62    63    1
    68    63    66    1
    69    93    92    1
    70    92    89   am
    71   116   115    2
    72   117   118    1
    73   117   119    1
    74   117   114    1
    75    66    67    1
    76   162   161    1
    77   115   114    1
    78   115   120   am
    79   123   122    2
    80    67    68    1
    81    89    88    1
    82    89    90    2
    83    61    59    1
    84   113   114    1
    85    88    91    1
    86    88    87    1
    87    60    59    1
    88    82    81    2
    89   161   158    1
    90   120   121    1
    91   121   122    1
    92   121   124    1
    93   122   126   am
    94    69    68   ar
    95    68    70   ar
    96    59    58    1
    97    87    81   am
    98    81    80    1
    99   125   124    1
   100   126   127    1
   101    58    55    1
   102   127   130    1
   103   127   128    1
   104   158   157    1
   105   158   159    1
   106   157   155   am
   107   130   131    1
   108   155   156    2
   109   155   154    1
   110    55    54    1
   111    55    56    1
   112   154   153    1
   113   160   159    2
   114   143   142    2
   115   210   208   ar
   116   210   211   ar
   117   128   140   am
   118   128   129    2
   119    57    56    2
   120    80    79    1
   121    80    83    1
   122   140   141    1
   123   208   206   ar
   124    54    48   am
   125   153   146   am
   126   172   171    1
   127   212   211    1
   128    83    84    1
   129   131   132   ar
   130   131   133   ar
   131    86    84   ar
   132    84    85   ar
   133   193   192    2
   134   211   209   ar
   135   132   134   ar
   136   142   141    1
   137   142   144   am
   138    48    49    2
   139    48    47    1
   140   171   170    2
   141   171   173    1
   142   206   205    1
   143   206   207   ar
   144   146   145    1
   145   146   147    2
   146    46    47    1
   147   202   203    1
   148   202   205    1
   149   202   201    1
   150   170   169    1
   151   203   204    2
   152   192   201   am
   153   192   191    1
   154   133   136   ar
   155   133   135   ar
   156    47    50    1
   157   145   144    1
   158   145   148    1
   159   209   207   ar
   160   134   135   ar
   161   136   138   ar
   162   190   191    1
   163   190   188   am
   164   168   169    1
   165   168   167    1
   166   187   188    1
   167   187   186    1
   168   135   137   ar
   169   191   194    1
   170    52    51    2
   171   163   164    1
   172   188   189    2
   173   194   195    1
   174   148   149    1
   175    50    51    1
   176   138   139   ar
   177    78    76    1
   178   186   176   am
   179    51    53   am
   180   167   164    1
   181   164   165    1
   182   137   139   ar
   183   149   150    1
   184   177   176    2
   185    76    75    1
   186   176   175    1
   187   195   196   ar
   188   195   197   ar
   189    77    75    1
   190   196   198   ar
   191   165   166    2
   192    75    72    1
   193   150   151   ar
   194   150   152   ar
   195   197   199   ar
   196   175   174    1
   197   175   178    1
   198   198   200   ar
   199    72    71    1
   200    72    73    1
   201   178   179    1
   202   199   200   ar
   203    73    74    2
   204   179   181   ar
   205   179   180   ar
   206   181   183   ar
   207   180   182   ar
   208   183   184   ar
   209   182   184   ar
   210   184   185    1
