@<TRIPOS>MOLECULE
tmp/2gdoA00.pdb
 171 159 0 0 0
SMALL
GASTEIGER

@<TRIPOS>ATOM
      1  N          0.7750   -6.8790   51.2000 N.3    15  LEU15      -0.1231
      2  CA         0.4050   -6.1640   49.9880 C.3    15  LEU15       0.1693
      3  C          0.4200   -7.1140   48.7930 C.2    15  LEU15       0.2593
      4  O         -0.3880   -6.9830   47.8740 O.2    15  LEU15      -0.2718
      5  CB         1.3750   -5.0020   49.7660 C.3    15  LEU15       0.0284
      6  CG         1.6610   -4.1810   51.0280 C.3    15  LEU15       0.0019
      7  CD1        2.5250   -2.9770   50.6830 C.3    15  LEU15       0.0001
      8  CD2        0.3470   -3.7380   51.6500 C.3    15  LEU15       0.0001
      9  N          1.3470   -8.0680   48.8160 N.am   16  GLY16      -0.1942
     10  CA         1.2680   -9.2130   47.9250 C.3    16  GLY16       0.2014
     11  C          1.8960   -9.0400   46.5550 C.2    16  GLY16       0.2639
     12  O          2.7960   -8.2210   46.3670 O.2    16  GLY16      -0.2714
     13  N          1.4230   -9.8430   45.6050 N.am   17  GLU17      -0.1963
     14  CA         1.8000   -9.7340   44.1980 C.3    17  GLU17       0.1733
     15  C          3.2840   -9.4880   43.9580 C.2    17  GLU17       0.2616
     16  O          4.1030   -9.6090   44.8690 O.2    17  GLU17      -0.2715
     17  CB         0.9680   -8.6410   43.5190 C.3    17  GLU17       0.0429
     18  CG        -0.5040   -9.0130   43.3730 C.3    17  GLU17       0.1163
     19  CD        -1.3870   -7.8340   43.0060 C.2    17  GLU17       0.3649
     20  OE1       -1.8110   -7.1000   43.9240 O.co2  17  GLU17      -0.2457
     21  OE2       -1.6620   -7.6430   41.8020 O.co2  17  GLU17      -0.2457
     22  N          3.6210   -9.1490   42.7190 N.am   18  GLY18      -0.1955
     23  CA         5.0130   -9.0250   42.3340 C.3    18  GLY18       0.1869
     24  C          5.8090   -8.0280   43.1540 C.2    18  GLY18       0.2309
     25  O          5.2770   -7.3610   44.0420 O.2    18  GLY18      -0.2863
     26  N          5.3560   -8.1040   48.6710 N.3    23  VAL23      -0.1245
     27  CA         5.6650   -6.8240   49.3080 C.3    23  VAL23       0.1561
     28  C          4.7490   -6.7260   50.5220 C.2    23  VAL23       0.2260
     29  O          3.5410   -6.8760   50.3840 O.2    23  VAL23      -0.2867
     30  CB         5.3490   -5.6250   48.3700 C.3    23  VAL23       0.0252
     31  CG1        5.5590   -4.3110   49.1130 C.3    23  VAL23       0.0019
     32  CG2        6.2260   -5.6740   47.1290 C.3    23  VAL23       0.0019
     33  N          6.3580    0.4440   52.3010 N.3    36  ALA36      -0.1245
     34  CA         6.2950   -0.7270   51.4430 C.3    36  ALA36       0.1562
     35  C          7.6010   -1.5020   51.5540 C.2    36  ALA36       0.2260
     36  O          8.6740   -0.9670   51.2800 O.2    36  ALA36      -0.2867
     37  CB         6.0560   -0.3040   49.9990 C.3    36  ALA36       0.0290
     38  N          9.3550   -4.7950   50.0940 N.3    38  LYS38      -0.1245
     39  CA         9.4090   -5.9040   49.1520 C.3    38  LYS38       0.1561
     40  C         10.3730   -6.9590   49.6780 C.2    38  LYS38       0.2260
     41  O         11.4730   -6.6360   50.1280 O.2    38  LYS38      -0.2867
     42  CB         9.8770   -5.3980   47.7860 C.3    38  LYS38       0.0271
     43  CG         9.8790   -6.4470   46.6910 C.3    38  LYS38       0.0035
     44  CD        10.4180   -5.8620   45.4010 C.3    38  LYS38       0.0206
     45  CE        10.3300   -6.8580   44.2650 C.3    38  LYS38       0.1093
     46  NZ        10.7510   -6.2380   42.9840 N.3    38  LYS38      -0.1314
     47  N         17.8020   -3.4000   40.5260 N.3    51  GLU51      -0.1245
     48  CA        16.5640   -2.7680   40.9750 C.3    51  GLU51       0.1567
     49  C         16.8690   -1.7630   42.0780 C.2    51  GLU51       0.2260
     50  O         16.3890   -0.6310   42.0570 O.2    51  GLU51      -0.2867
     51  CB        15.5970   -3.8310   41.5010 C.3    51  GLU51       0.0388
     52  CG        14.2560   -3.2950   41.9810 C.3    51  GLU51       0.1160
     53  CD        13.2750   -4.4090   42.3130 C.2    51  GLU51       0.3649
     54  OE1       13.5200   -5.5590   41.8870 O.co2  51  GLU51      -0.2457
     55  OE2       12.2610   -4.1390   42.9960 O.co2  51  GLU51      -0.2457
     56  N         16.4470    2.1320   42.0190 N.3    55  ASN55      -0.1240
     57  CA        15.5380    2.6280   43.0440 C.3    55  ASN55       0.1653
     58  C         16.1680    3.6940   43.9180 C.2    55  ASN55       0.2266
     59  O         15.4700    4.4410   44.5970 O.2    55  ASN55      -0.2867
     60  CB        15.0580    1.4760   43.9210 C.3    55  ASN55       0.1155
     61  CG        13.8920    0.7400   43.3130 C.2    55  ASN55       0.2627
     62  OD1       12.7640    1.2270   43.3340 O.2    55  ASN55      -0.2716
     63  ND2       14.1550   -0.4370   42.7610 N.am   55  ASN55      -0.0877
     64  N          7.3270    5.9110   43.0680 N.3    64  VAL64      -0.1245
     65  CA         7.4940    5.3840   44.4190 C.3    64  VAL64       0.1561
     66  C          8.9120    5.6640   44.9110 C.2    64  VAL64       0.2260
     67  O          9.8600    5.6390   44.1290 O.2    64  VAL64      -0.2867
     68  CB         7.2450    3.8680   44.4640 C.3    64  VAL64       0.0252
     69  CG1        7.5520    3.3410   45.8470 C.3    64  VAL64       0.0019
     70  CG2        5.8030    3.5660   44.0900 C.3    64  VAL64       0.0019
     71  N         10.3580    0.8290   50.6830 N.3    80  LEU80      -0.1231
     72  CA         9.8090    1.5890   49.5730 C.3    80  LEU80       0.1693
     73  C          8.5960    2.4060   49.9940 C.2    80  LEU80       0.2592
     74  O          7.9070    2.0690   50.9580 O.2    80  LEU80      -0.2718
     75  CB         9.4390    0.6330   48.4430 C.3    80  LEU80       0.0284
     76  CG        10.6500   -0.1350   47.9150 C.3    80  LEU80       0.0019
     77  CD1       10.2120   -1.3780   47.1620 C.3    80  LEU80       0.0001
     78  CD2       11.4680    0.7880   47.0320 C.3    80  LEU80       0.0001
     79  N          8.3450    3.4850   49.2600 N.am   81  GLU81      -0.1966
     80  CA         7.2750    4.4170   49.5940 C.3    81  GLU81       0.1733
     81  C          5.9170    3.7330   49.6280 C.2    81  GLU81       0.2616
     82  O          5.5680    2.9820   48.7160 O.2    81  GLU81      -0.2715
     83  CB         7.2370    5.5580   48.5800 C.3    81  GLU81       0.0429
     84  CG         6.0510    6.4830   48.7500 C.3    81  GLU81       0.1163
     85  CD         5.9540    7.5120   47.6450 C.2    81  GLU81       0.3649
     86  OE1        6.5590    7.2950   46.5740 O.co2  81  GLU81      -0.2457
     87  OE2        5.2730    8.5390   47.8490 O.co2  81  GLU81      -0.2457
     88  N          5.1480    4.0000   50.6790 N.am   82  TYR82      -0.1960
     89  CA         3.8330    3.3930   50.8020 C.3    82  TYR82       0.1771
     90  C          2.7200    4.2410   50.2030 C.2    82  TYR82       0.2620
     91  O          2.6820    5.4610   50.3710 O.2    82  TYR82      -0.2715
     92  CB         3.4950    3.0970   52.2620 C.3    82  TYR82       0.0574
     93  CG         2.1420    2.4370   52.4110 C.ar   82  TYR82      -0.0198
     94  CD1        1.8620    1.2420   51.7600 C.ar   82  TYR82      -0.0009
     95  CD2        1.1360    3.0190   53.1740 C.ar   82  TYR82      -0.0009
     96  CE1        0.6220    0.6480   51.8600 C.ar   82  TYR82       0.0417
     97  CE2       -0.1080    2.4300   53.2810 C.ar   82  TYR82       0.0417
     98  CZ        -0.3590    1.2450   52.6210 C.ar   82  TYR82       0.1957
     99  OH        -1.5950    0.6500   52.7180 O.3    82  TYR82      -0.2866
    100  N          1.8130    3.5700   49.5030 N.am   83  CYS83      -0.1954
    101  CA         0.6010    4.1980   49.0070 C.3    83  CYS83       0.1843
    102  C         -0.5900    3.4200   49.5590 C.2    83  CYS83       0.2626
    103  O         -0.6420    2.1950   49.4530 O.2    83  CYS83      -0.2714
    104  CB         0.5830    4.1610   47.4790 C.3    83  CYS83       0.0997
    105  SG         2.1740    4.5350   46.7090 S.3    83  CYS83      -0.0797
    106  N         -1.5400    4.1340   50.1520 N.am   84  SER84      -0.1950
    107  CA        -2.7050    3.4980   50.7560 C.3    84  SER84       0.1924
    108  C         -3.7830    3.2190   49.7190 C.2    84  SER84       0.2314
    109  O         -4.5300    2.2490   49.8370 O.2    84  SER84      -0.2863
    110  CB        -3.2930    4.3930   51.8450 C.3    84  SER84       0.2116
    111  OG        -3.8980    5.5390   51.2720 O.3    84  SER84      -0.2180
    112  N         -3.8080    1.9670   46.9690 N.3    86  GLY86      -0.1210
    113  CA        -3.7500    0.6830   46.2980 C.3    86  GLY86       0.1956
    114  C         -3.4850    0.8280   44.8130 C.2    86  GLY86       0.2611
    115  O         -3.0340    1.8790   44.3560 O.2    86  GLY86      -0.2717
    116  N         -3.7670   -0.2270   44.0550 N.am   87  GLU87      -0.1979
    117  CA        -3.4890   -0.2400   42.6240 C.3    87  GLU87       0.1602
    118  C         -4.4790    0.6360   41.8630 C.2    87  GLU87       0.2287
    119  O         -5.6800    0.6010   42.1320 O.2    87  GLU87      -0.2864
    120  CB        -3.5700   -1.6700   42.0820 C.3    87  GLU87       0.0415
    121  CG        -2.6430   -2.6640   42.7620 C.3    87  GLU87       0.1163
    122  CD        -2.5980   -3.9980   42.0440 C.2    87  GLU87       0.3649
    123  OE1       -3.4820   -4.2520   41.1990 O.co2  87  GLU87      -0.2457
    124  OE2       -1.6790   -4.7920   42.3240 O.co2  87  GLU87      -0.2457
    125  N         -7.3540   -1.2360   40.5760 N.3    90  ASP90      -0.1239
    126  CA        -8.6090   -1.4590   41.2780 C.3    90  ASP90       0.1674
    127  C         -9.5510   -0.2670   41.2100 C.2    90  ASP90       0.2266
    128  O        -10.5830   -0.2450   41.8770 O.2    90  ASP90      -0.2867
    129  CB        -8.3260   -1.8110   42.7360 C.3    90  ASP90       0.1410
    130  CG        -7.6060   -3.1330   42.8790 C.2    90  ASP90       0.3668
    131  OD1       -8.1930   -4.1700   42.5060 O.co2  90  ASP90      -0.2456
    132  OD2       -6.4540   -3.1330   43.3590 O.co2  90  ASP90      -0.2456
    133  N         -1.7550   -2.6880   37.5850 N.3   130  GLU130     -0.1231
    134  CA        -1.2990   -3.4320   38.7580 C.3   130  GLU130      0.1699
    135  C         -0.0280   -2.7970   39.3260 C.2   130  GLU130      0.2592
    136  O          0.3720   -3.0770   40.4600 O.2   130  GLU130     -0.2718
    137  CB        -1.0050   -4.8910   38.3890 C.3   130  GLU130      0.0402
    138  CG        -2.1480   -5.6280   37.7120 C.3   130  GLU130      0.1161
    139  CD        -2.2490   -5.3050   36.2370 C.2   130  GLU130      0.3649
    140  OE1       -1.6520   -4.2940   35.8130 O.co2 130  GLU130     -0.2457
    141  OE2       -2.9210   -6.0590   35.5010 O.co2 130  GLU130     -0.2457
    142  N          0.6020   -1.9430   38.5260 N.am  131  ASN131     -0.1974
    143  CA         1.9060   -1.3920   38.8630 C.3   131  ASN131      0.1688
    144  C          1.8410    0.1070   39.1150 C.2   131  ASN131      0.2292
    145  O          2.8310    0.7150   39.5120 O.2   131  ASN131     -0.2864
    146  CB         2.8980   -1.6710   37.7340 C.3   131  ASN131      0.1181
    147  CG         4.0920   -2.4810   38.1900 C.2   131  ASN131      0.2629
    148  OD1        4.4560   -2.4670   39.3660 O.2   131  ASN131     -0.2716
    149  ND2        4.7120   -3.1930   37.2550 N.am  131  ASN131     -0.0877
    150  N          0.3090    2.9280   41.3890 N.3   133  LEU133     -0.1245
    151  CA        -0.2660    2.9650   42.7270 C.3   133  LEU133      0.1561
    152  C         -0.8810    4.3200   43.0500 C.2   133  LEU133      0.2260
    153  O         -0.6530    5.3060   42.3480 O.2   133  LEU133     -0.2867
    154  CB         0.8100    2.6250   43.7590 C.3   133  LEU133      0.0270
    155  CG         1.5760    1.3300   43.4760 C.3   133  LEU133      0.0019
    156  CD1        2.6740    1.1470   44.5060 C.3   133  LEU133      0.0001
    157  CD2        0.6150    0.1500   43.4900 C.3   133  LEU133      0.0001
    158  N          5.5380    2.1770   40.5280 N.3   143  SER143     -0.1202
    159  CA         6.1930    1.2900   41.4830 C.3   143  SER143      0.2020
    160  C          6.8140    0.0690   40.8220 C.2   143  SER143      0.2618
    161  O          6.4330   -0.3140   39.7170 O.2   143  SER143     -0.2717
    162  CB         5.1970    0.8190   42.5410 C.3   143  SER143      0.2103
    163  OG         4.3150   -0.1510   42.0070 O.3   143  SER143     -0.2182
    164  N          7.7670   -0.5360   41.5230 N.am  144  ASP144     -0.1973
    165  CA         8.4400   -1.7450   41.0660 C.3   144  ASP144      0.1709
    166  C          9.3660   -1.4300   39.9000 C.2   144  ASP144      0.2293
    167  O          8.9180   -1.0200   38.8300 O.2   144  ASP144     -0.2864
    168  CB         7.4120   -2.8020   40.6460 C.3   144  ASP144      0.1436
    169  CG         7.9150   -4.2240   40.8530 C.2   144  ASP144      0.3671
    170  OD1        9.1420   -4.4070   41.0000 O.co2 144  ASP144     -0.2456
    171  OD2        7.0830   -5.1570   40.8730 O.co2 144  ASP144     -0.2456
@<TRIPOS>BOND
     1   141   139   ar
     2   140   139   ar
     3   139   138    1
     4   149   147   am
     5   133   134    1
     6   138   137    1
     7   146   147    1
     8   146   143    1
     9   147   148    2
    10   137   134    1
    11   142   143    1
    12   142   135   am
    13   134   135    1
    14   167   166    2
    15   143   144    1
    16   144   145    2
    17   135   136    2
    18   161   160    2
    19   166   165    1
    20    47    48    1
    21   158   159    1
    22   125   126    1
    23   168   169    1
    24   168   165    1
    25   160   159    1
    26   160   164   am
    27   169   171   ar
    28   169   170   ar
    29    48    51    1
    30    48    49    1
    31   165   164    1
    32   123   122   ar
    33   127   126    1
    34   127   128    2
    35   126   129    1
    36   150   151    1
    37   159   162    1
    38    51    52    1
    39    21    19   ar
    40   118   119    2
    41   118   117    1
    42    54    53   ar
    43    52    53    1
    44   163   162    1
    45    56    57    1
    46   122   124   ar
    47   122   121    1
    48    50    49    2
    49   120   117    1
    50   120   121    1
    51    53    55   ar
    52    23    22    1
    53    23    24    1
    54   153   152    2
    55   131   130   ar
    56   117   116    1
    57    22    15   am
    58   151   152    1
    59   151   154    1
    60   129   130    1
    61    63    61   am
    62   130   132   ar
    63    46    45    1
    64    19    18    1
    65    19    20   ar
    66    57    58    1
    67    57    60    1
    68    64    65    1
    69    24    25    2
    70    61    62    2
    71    61    60    1
    72    18    17    1
    73   155   157    1
    74   155   154    1
    75   155   156    1
    76    17    14    1
    77    58    59    2
    78    15    14    1
    79    15    16    2
    80   116   114   am
    81    70    68    1
    82    67    66    2
    83    14    13    1
    84    45    44    1
    85   115   114    2
    86    65    68    1
    87    65    66    1
    88    68    69    1
    89   114   113    1
    90    44    43    1
    91    13    11   am
    92   113   112    1
    93    12    11    2
    94    11    10    1
    95    86    85   ar
    96    43    42    1
    97   105   104    1
    98    78    76    1
    99    32    30    1
   100    77    76    1
   101   104   101    1
   102    85    87   ar
   103    85    84    1
   104    42    39    1
   105     4     3    2
   106    76    75    1
   107    10     9    1
   108    30    31    1
   109    30    27    1
   110    75    72    1
   111    83    84    1
   112    83    80    1
   113    26    27    1
   114    82    81    2
   115     3     9   am
   116     3     2    1
   117   101   100    1
   118   101   102    1
   119    39    40    1
   120    39    38    1
   121    79    80    1
   122    79    73   am
   123    27    28    1
   124   103   102    2
   125   100    90   am
   126   102   106   am
   127    72    73    1
   128    72    71    1
   129    80    81    1
   130    81    88   am
   131    40    41    2
   132   108   109    2
   133   108   107    1
   134     5     2    1
   135     5     6    1
   136     2     1    1
   137    73    74    2
   138    37    34    1
   139   106   107    1
   140    90    91    2
   141    90    89    1
   142    29    28    2
   143    88    89    1
   144     7     6    1
   145   107   110    1
   146    89    92    1
   147     6     8    1
   148   111   110    1
   149    36    35    2
   150    34    35    1
   151    34    33    1
   152    94    96   ar
   153    94    93   ar
   154    96    98   ar
   155    92    93    1
   156    93    95   ar
   157    98    99    1
   158    98    97   ar
   159    95    97   ar
