@<TRIPOS>MOLECULE
tmp/2gdrC00.pdb
 134 132 0 0 0
SMALL
GASTEIGER

@<TRIPOS>ATOM
      1  N        -22.2270  -52.7730   63.8430 N.3     9  ALA9       -0.1231
      2  CA       -22.2790  -52.8220   62.3790 C.3     9  ALA9        0.1694
      3  C        -23.0330  -51.6280   61.7830 C.2     9  ALA9        0.2592
      4  O        -23.5430  -50.7830   62.5190 O.2     9  ALA9       -0.2718
      5  CB       -22.9160  -54.1370   61.9280 C.3     9  ALA9        0.0304
      6  N        -23.0890  -51.5480   60.4550 N.am   10  CYS10      -0.1970
      7  CA       -23.7740  -50.4400   59.7970 C.3    10  CYS10       0.1712
      8  C        -25.2730  -50.3980   60.0810 C.2    10  CYS10       0.2296
      9  O        -25.9180  -49.3710   59.8620 O.2    10  CYS10      -0.2864
     10  CB       -23.5480  -50.4830   58.2870 C.3    10  CYS10       0.0983
     11  SG       -24.0750  -52.0080   57.5130 S.3    10  CYS10      -0.0798
     12  N        -23.3480  -62.9450   61.7410 N.3    32  LEU32      -0.1245
     13  CA       -22.7930  -62.7970   60.4040 C.3    32  LEU32       0.1561
     14  C        -21.7440  -63.8600   60.1060 C.2    32  LEU32       0.2260
     15  O        -21.3740  -64.0700   58.9510 O.2    32  LEU32      -0.2867
     16  CB       -22.1940  -61.3950   60.2460 C.3    32  LEU32       0.0270
     17  CG       -23.1030  -60.2090   60.6040 C.3    32  LEU32       0.0019
     18  CD1      -22.3390  -58.9170   60.4050 C.3    32  LEU32       0.0001
     19  CD2      -24.3580  -60.2210   59.7480 C.3    32  LEU32       0.0001
     20  N        -24.3510  -66.9550   59.7170 N.3    35  LYS35      -0.1245
     21  CA       -25.4010  -66.6520   58.7490 C.3    35  LYS35       0.1561
     22  C        -26.7630  -67.2290   59.1230 C.2    35  LYS35       0.2260
     23  O        -27.4220  -67.8750   58.3070 O.2    35  LYS35      -0.2867
     24  CB       -25.0010  -67.1610   57.3630 C.3    35  LYS35       0.0271
     25  CG       -24.4900  -66.0880   56.4190 C.3    35  LYS35       0.0035
     26  CD       -23.2700  -65.3650   56.9540 C.3    35  LYS35       0.0206
     27  CE       -22.8040  -64.3120   55.9560 C.3    35  LYS35       0.1093
     28  NZ       -21.6540  -63.5150   56.4560 N.3    35  LYS35      -0.1314
     29  N        -27.2090  -61.9930   50.0270 N.3    49  ALA49      -0.1231
     30  CA       -25.8580  -61.4810   50.2440 C.3    49  ALA49       0.1694
     31  C        -25.3230  -61.7830   51.6500 C.2    49  ALA49       0.2593
     32  O        -24.1130  -61.7500   51.8760 O.2    49  ALA49      -0.2718
     33  CB       -25.8360  -59.9810   49.9820 C.3    49  ALA49       0.0304
     34  N        -26.2280  -62.0620   52.5900 N.am   50  GLY50      -0.1942
     35  CA       -25.8320  -62.4010   53.9520 C.3    50  GLY50       0.2014
     36  C        -25.4740  -61.2950   54.9340 C.2    50  GLY50       0.2639
     37  O        -25.2100  -61.5730   56.1000 O.2    50  GLY50      -0.2714
     38  N        -25.4700  -60.0420   54.4920 N.am   51  TYR51      -0.1959
     39  CA       -25.1200  -58.9560   55.3920 C.3    51  TYR51       0.1771
     40  C        -26.3110  -58.1580   55.8840 C.2    51  TYR51       0.2619
     41  O        -27.3990  -58.2370   55.3270 O.2    51  TYR51      -0.2715
     42  CB       -24.1150  -58.0190   54.7240 C.3    51  TYR51       0.0574
     43  CG       -24.5410  -57.4980   53.3860 C.ar   51  TYR51      -0.0198
     44  CD1      -25.7030  -56.7420   53.2470 C.ar   51  TYR51      -0.0009
     45  CD2      -23.7900  -57.7740   52.2510 C.ar   51  TYR51      -0.0009
     46  CE1      -26.1130  -56.2720   52.0000 C.ar   51  TYR51       0.0417
     47  CE2      -24.1830  -57.3120   50.9970 C.ar   51  TYR51       0.0417
     48  CZ       -25.3460  -56.5630   50.8750 C.ar   51  TYR51       0.1957
     49  OH       -25.7350  -56.1180   49.6280 O.3    51  TYR51      -0.2866
     50  N        -26.0880  -57.3920   56.9440 N.am   52  VAL52      -0.1964
     51  CA       -27.1150  -56.5500   57.5370 C.3    52  VAL52       0.1712
     52  C        -26.8130  -55.0940   57.1630 C.2    52  VAL52       0.2458
     53  O        -25.7100  -54.7720   56.7240 O.2    52  VAL52      -0.2730
     54  CB       -27.1330  -56.7100   59.0840 C.3    52  VAL52       0.0289
     55  CG1      -27.3980  -58.1780   59.4530 C.3    52  VAL52       0.0023
     56  CG2      -25.8090  -56.2200   59.6820 C.3    52  VAL52       0.0023
     57  N        -27.7840  -54.1910   57.3560 N.am   53  PRO53      -0.2727
     58  CA       -29.0980  -54.5220   57.9050 C.3    53  PRO53       0.1402
     59  C        -30.0880  -55.0790   56.8940 C.2    53  PRO53       0.2269
     60  O        -29.8140  -55.1890   55.6900 O.2    53  PRO53      -0.2865
     61  CB       -29.5610  -53.1910   58.4770 C.3    53  PRO53       0.0296
     62  CG       -29.0670  -52.2200   57.4450 C.3    53  PRO53       0.0237
     63  CD       -27.6730  -52.7420   57.0970 C.3    53  PRO53       0.0939
     64  N        -29.9440  -52.7700   52.1970 N.3    65  GLU65      -0.1231
     65  CA       -29.1700  -51.5710   51.8360 C.3    65  GLU65       0.1699
     66  C        -29.5660  -50.4330   52.7690 C.2    65  GLU65       0.2593
     67  O        -30.6950  -49.9420   52.7160 O.2    65  GLU65      -0.2718
     68  CB       -29.4130  -51.1490   50.3740 C.3    65  GLU65       0.0402
     69  CG       -29.0920  -52.2280   49.3340 C.3    65  GLU65       0.1161
     70  CD       -27.6230  -52.6220   49.3270 C.2    65  GLU65       0.3649
     71  OE1      -27.3240  -53.8230   49.1600 O.co2  65  GLU65      -0.2457
     72  OE2      -26.7590  -51.7320   49.4830 O.co2  65  GLU65      -0.2457
     73  N        -28.6370  -50.0260   53.6290 N.am   66  GLY66      -0.1943
     74  CA       -28.8990  -48.9490   54.5760 C.3    66  GLY66       0.1998
     75  C        -29.5990  -47.7270   53.9940 C.2    66  GLY66       0.2480
     76  O        -30.6430  -47.3080   54.4970 O.2    66  GLY66      -0.2729
     77  N        -29.0470  -47.1270   52.9320 N.am   67  PRO67      -0.2726
     78  CA       -29.6760  -45.9490   52.3260 C.3    67  PRO67       0.1402
     79  C        -31.1460  -46.1590   51.9610 C.2    67  PRO67       0.2269
     80  O        -31.9360  -45.2420   52.0830 O.2    67  PRO67      -0.2865
     81  CB       -28.7980  -45.6810   51.0990 C.3    67  PRO67       0.0296
     82  CG       -27.4450  -46.1450   51.5510 C.3    67  PRO67       0.0237
     83  CD       -27.7630  -47.4400   52.2700 C.3    67  PRO67       0.0939
     84  N        -22.0320  -44.3870   51.8100 N.3   102  SER102     -0.1217
     85  CA       -22.0410  -45.8030   51.4930 C.3   102  SER102      0.1889
     86  C        -20.8920  -46.2700   50.6020 C.2   102  SER102      0.2288
     87  O        -20.1880  -47.2150   50.9500 O.2   102  SER102     -0.2866
     88  CB       -23.3770  -46.1670   50.8400 C.3   102  SER102      0.2089
     89  OG       -23.3870  -47.5110   50.3960 O.3   102  SER102     -0.2183
     90  N        -18.0480  -45.8590   53.9260 N.3   106  HIS106     -0.1226
     91  CA       -18.3800  -47.1880   54.4210 C.3   106  HIS106      0.1752
     92  C        -17.5650  -48.3060   53.7470 C.2   106  HIS106      0.2595
     93  O        -16.9460  -49.1260   54.4220 O.2   106  HIS106     -0.2718
     94  CB       -19.8900  -47.4090   54.2380 C.3   106  HIS106      0.0759
     95  CG       -20.3950  -48.7150   54.7700 C.ar  106  HIS106      0.0818
     96  ND1      -21.7210  -48.9190   55.0830 N.ar  106  HIS106     -0.2268
     97  CD2      -19.7720  -49.8970   54.9910 C.ar  106  HIS106      0.1154
     98  CE1      -21.8940  -50.1700   55.4720 C.ar  106  HIS106      0.1986
     99  NE2      -20.7260  -50.7860   55.4250 N.ar  106  HIS106     -0.2212
    100  N        -17.5560  -48.3370   52.4220 N.am  107  LYS107     -0.1980
    101  CA       -16.8180  -49.3680   51.7040 C.3   107  LYS107      0.1596
    102  C        -15.3040  -49.3030   51.8800 C.2   107  LYS107      0.2287
    103  O        -14.6180  -50.3120   51.7390 O.2   107  LYS107     -0.2864
    104  CB       -17.1680  -49.3310   50.2150 C.3   107  LYS107      0.0298
    105  CG       -18.4820  -50.0160   49.9000 C.3   107  LYS107      0.0038
    106  CD       -18.4650  -51.4510   50.4250 C.3   107  LYS107      0.0206
    107  CE       -19.8590  -52.0430   50.4930 C.3   107  LYS107      0.1093
    108  NZ       -19.8640  -53.3540   51.2030 N.3   107  LYS107     -0.1314
    109  N        -26.2560  -41.8980   59.4050 N.3   157  TYR157     -0.1241
    110  CA       -25.4550  -42.8380   58.6610 C.3   157  TYR157      0.1605
    111  C        -23.9910  -42.4900   58.8580 C.2   157  TYR157      0.2264
    112  O        -23.1810  -43.3610   59.1380 O.2   157  TYR157     -0.2867
    113  CB       -25.8160  -42.7610   57.1820 C.3   157  TYR157      0.0534
    114  CG       -25.2590  -43.8920   56.3630 C.ar  157  TYR157     -0.0201
    115  CD1      -24.6210  -44.9780   56.9680 C.ar  157  TYR157     -0.0009
    116  CD2      -25.4120  -43.9040   54.9790 C.ar  157  TYR157     -0.0009
    117  CE1      -24.1570  -46.0540   56.2070 C.ar  157  TYR157      0.0417
    118  CE2      -24.9520  -44.9690   54.2120 C.ar  157  TYR157      0.0417
    119  CZ       -24.3320  -46.0390   54.8250 C.ar  157  TYR157      0.1957
    120  OH       -23.9250  -47.1040   54.0480 O.3   157  TYR157     -0.2866
    121  N        -16.5430  -45.9270   63.6810 N.3   164  TRP164     -0.1241
    122  CA       -15.5900  -47.0090   63.4380 C.3   164  TRP164      0.1605
    123  C        -14.1190  -46.5950   63.4770 C.2   164  TRP164      0.2264
    124  O        -13.2550  -47.4130   63.7800 O.2   164  TRP164     -0.2867
    125  CB       -15.8570  -47.6710   62.0780 C.3   164  TRP164      0.0550
    126  CG       -17.2210  -48.2970   61.9060 C.ar  164  TRP164      0.0003
    127  CD1      -17.9750  -48.9080   62.8680 C.ar  164  TRP164      0.0946
    128  CD2      -17.9540  -48.4360   60.6750 C.ar  164  TRP164      0.0152
    129  NE1      -19.1280  -49.4210   62.3160 N.ar  164  TRP164     -0.2442
    130  CE2      -19.1420  -49.1470   60.9740 C.ar  164  TRP164      0.0810
    131  CE3      -17.7220  -48.0290   59.3490 C.ar  164  TRP164      0.0012
    132  CZ2      -20.0980  -49.4600   59.9970 C.ar  164  TRP164      0.0191
    133  CZ3      -18.6760  -48.3410   58.3730 C.ar  164  TRP164      0.0001
    134  CH2      -19.8490  -49.0500   58.7080 C.ar  164  TRP164      0.0015
@<TRIPOS>BOND
     1    71    70   ar
     2    70    69    1
     3    70    72   ar
     4    69    68    1
     5    49    48    1
     6   105   104    1
     7   105   106    1
     8    33    30    1
     9    29    30    1
    10   104   101    1
    11    30    31    1
    12    68    65    1
    13    89    88    1
    14   106   107    1
    15   107   108    1
    16    86    87    2
    17    86    85    1
    18    88    85    1
    19    48    47   ar
    20    48    46   ar
    21    47    45   ar
    22    81    82    1
    23    81    78    1
    24    85    84    1
    25    82    83    1
    26    31    32    2
    27    31    34   am
    28   101   102    1
    29   101   100    1
    30   103   102    2
    31    65    64    1
    32    65    66    1
    33    79    80    2
    34    79    78    1
    35    46    44   ar
    36    45    43   ar
    37    83    77    1
    38    78    77    1
    39   100    92   am
    40    34    35    1
    41    67    66    2
    42    66    73   am
    43    77    75   am
    44    44    43   ar
    45    43    42    1
    46    73    74    1
    47    92    91    1
    48    92    93    2
    49    90    91    1
    50    35    36    1
    51    75    76    2
    52    75    74    1
    53   120   119    1
    54   118   119   ar
    55   118   116   ar
    56    94    91    1
    57    94    95    1
    58    38    36   am
    59    38    39    1
    60    42    39    1
    61    95    97   ar
    62    95    96   ar
    63   119   117   ar
    64    36    37    2
    65   116   114   ar
    66    97    99   ar
    67    96    98   ar
    68    41    40    2
    69    39    40    1
    70    99    98   ar
    71    60    59    2
    72    40    50   am
    73    27    28    1
    74    27    26    1
    75   117   115   ar
    76   114   115   ar
    77   114   113    1
    78    25    26    1
    79    25    24    1
    80    53    52    2
    81    59    58    1
    82    50    51    1
    83    63    57    1
    84    63    62    1
    85    52    57   am
    86    52    51    1
    87   113   110    1
    88    57    58    1
    89    24    21    1
    90    62    61    1
    91    11    10    1
    92    51    54    1
    93    58    61    1
    94    10     7    1
    95    23    22    2
    96   133   134   ar
    97   133   131   ar
    98   110   111    1
    99   110   109    1
   100   134   132   ar
   101    21    22    1
   102    21    20    1
   103   111   112    2
   104    15    14    2
   105    54    55    1
   106    54    56    1
   107   131   128   ar
   108    19    17    1
   109     7     8    1
   110     7     6    1
   111     9     8    2
   112   132   130   ar
   113    14    13    1
   114    16    13    1
   115    16    17    1
   116    13    12    1
   117    18    17    1
   118     6     3   am
   119   128   130   ar
   120   128   126   ar
   121   130   129   ar
   122     3     2    1
   123     3     4    2
   124   126   125    1
   125   126   127   ar
   126     5     2    1
   127   125   122    1
   128   129   127   ar
   129     2     1    1
   130   122   123    1
   131   122   121    1
   132   123   124    2
