@<TRIPOS>MOLECULE
tmp/2gdrB02.pdb
 110 108 0 0 0
SMALL
GASTEIGER

@<TRIPOS>ATOM
      1  N        -27.1750   -5.8080  -13.2490 N.3     6  SER6       -0.1203
      2  CA       -26.1340   -5.0220  -13.8830 C.3     6  SER6        0.2005
      3  C        -25.4390   -6.1240  -14.6910 C.2     6  SER6        0.2461
      4  O        -25.2850   -7.2460  -14.2080 O.2     6  SER6       -0.2732
      5  CB       -25.2010   -4.4040  -12.8330 C.3     6  SER6        0.2103
      6  OG       -24.5680   -3.2370  -13.3370 O.3     6  SER6       -0.2182
      7  N        -25.0490   -5.8360  -15.9390 N.am    7  PRO7       -0.2717
      8  CA       -24.3890   -6.8380  -16.7820 C.3     7  PRO7        0.1536
      9  C        -23.1370   -7.4920  -16.2200 C.2     7  PRO7        0.2599
     10  O        -22.1880   -6.8260  -15.7860 O.2     7  PRO7       -0.2715
     11  CB       -24.1050   -6.0770  -18.0730 C.3     7  PRO7        0.0310
     12  CG       -25.2170   -5.0870  -18.1260 C.3     7  PRO7        0.0237
     13  CD       -25.2610   -4.5910  -16.6920 C.3     7  PRO7        0.0939
     14  N        -23.1530   -8.8160  -16.2400 N.am    8  GLY8       -0.1941
     15  CA       -22.0200   -9.5550  -15.7570 C.3     8  GLY8        0.2014
     16  C        -21.8880   -9.6040  -14.2550 C.2     8  GLY8        0.2639
     17  O        -21.2420  -10.5230  -13.7740 O.2     8  GLY8       -0.2714
     18  N        -22.4780   -8.6710  -13.5080 N.am    9  ALA9       -0.1963
     19  CA       -22.3470   -8.6790  -12.0480 C.3     9  ALA9        0.1728
     20  C        -22.8960   -9.9700  -11.4390 C.2     9  ALA9        0.2616
     21  O        -23.3000  -10.8750  -12.1700 O.2     9  ALA9       -0.2715
     22  CB       -23.0630   -7.4660  -11.4620 C.3     9  ALA9        0.0334
     23  N        -22.9230  -10.0600  -10.1090 N.am   10  CYS10      -0.1968
     24  CA       -23.4470  -11.2640   -9.4600 C.3    10  CYS10       0.1712
     25  C        -24.9720  -11.4240   -9.6450 C.2    10  CYS10       0.2296
     26  O        -25.5420  -12.4370   -9.2590 O.2    10  CYS10      -0.2864
     27  CB       -23.0820  -11.2830   -7.9600 C.3    10  CYS10       0.0983
     28  SG       -23.8830  -10.0210   -6.9200 S.3    10  CYS10      -0.0798
     29  N        -25.2470    1.2360  -11.0230 N.3    32  LEU32      -0.1245
     30  CA       -24.5230    1.1180   -9.7590 C.3    32  LEU32       0.1561
     31  C        -23.7600    2.3930   -9.4250 C.2    32  LEU32       0.2260
     32  O        -23.2200    2.5310   -8.3250 O.2    32  LEU32      -0.2867
     33  CB       -23.5550   -0.0650   -9.8090 C.3    32  LEU32       0.0270
     34  CG       -24.2060   -1.4230  -10.0640 C.3    32  LEU32       0.0019
     35  CD1      -23.1240   -2.4900  -10.2230 C.3    32  LEU32       0.0001
     36  CD2      -25.1600   -1.7520   -8.9210 C.3    32  LEU32       0.0001
     37  N        -17.0280  -14.6340   -3.4510 N.3   106  HIS106     -0.1226
     38  CA       -17.6020  -13.4020   -3.9740 C.3   106  HIS106      0.1752
     39  C        -16.9840  -12.1570   -3.3340 C.2   106  HIS106      0.2595
     40  O        -16.5530  -11.2440   -4.0380 O.2   106  HIS106     -0.2718
     41  CB       -19.1250  -13.4210   -3.7550 C.3   106  HIS106      0.0759
     42  CG       -19.8470  -12.2280   -4.3070 C.ar  106  HIS106      0.0818
     43  ND1      -21.2210  -12.1130   -4.2850 N.ar  106  HIS106     -0.2268
     44  CD2      -19.3880  -11.0890   -4.8750 C.ar  106  HIS106      0.1154
     45  CE1      -21.5760  -10.9550   -4.8140 C.ar  106  HIS106      0.1986
     46  NE2      -20.4810  -10.3130   -5.1790 N.ar  106  HIS106     -0.2212
     47  N        -16.9210  -12.1140   -2.0060 N.am  107  LYS107     -0.1980
     48  CA       -16.3710  -10.9340   -1.3470 C.3   107  LYS107      0.1596
     49  C        -14.8530  -10.8580   -1.3950 C.2   107  LYS107      0.2287
     50  O        -14.2700   -9.8590   -0.9850 O.2   107  LYS107     -0.2864
     51  CB       -16.8580  -10.8350    0.1020 C.3   107  LYS107      0.0298
     52  CG       -18.3830  -10.8890    0.2710 C.3   107  LYS107      0.0038
     53  CD       -19.1500   -9.9680   -0.6900 C.3   107  LYS107      0.0206
     54  CE       -18.9840   -8.5020   -0.3480 C.3   107  LYS107      0.1093
     55  NZ       -19.7290   -7.6450   -1.3120 N.3   107  LYS107     -0.1314
     56  N        -14.4030   -8.8220   -4.6890 N.3   110  SER110     -0.1217
     57  CA       -14.7550   -7.3980   -4.5680 C.3   110  SER110      0.1889
     58  C        -13.5830   -6.4390   -4.6260 C.2   110  SER110      0.2288
     59  O        -13.5740   -5.5090   -5.4340 O.2   110  SER110     -0.2866
     60  CB       -15.4610   -7.0950   -3.2510 C.3   110  SER110      0.2089
     61  OG       -16.6340   -7.8370   -3.0850 O.3   110  SER110     -0.2183
     62  N        -11.6560   -5.7180   -7.6960 N.3   113  PHE113     -0.1241
     63  CA       -12.4040   -4.9150   -8.6560 C.3   113  PHE113      0.1605
     64  C        -12.3640   -3.4340   -8.3740 C.2   113  PHE113      0.2264
     65  O        -12.7480   -2.6260   -9.2180 O.2   113  PHE113     -0.2867
     66  CB       -13.8450   -5.3720   -8.6940 C.3   113  PHE113      0.0534
     67  CG       -14.0330   -6.6440   -9.4260 C.ar  113  PHE113     -0.0203
     68  CD1      -14.9410   -7.5480   -9.0000 C.ar  113  PHE113     -0.0042
     69  CD2      -13.2970   -6.9510  -10.5570 C.ar  113  PHE113     -0.0042
     70  CE1      -15.0970   -8.7350   -9.6960 C.ar  113  PHE113     -0.0003
     71  CE2      -13.4960   -8.1660  -11.2350 C.ar  113  PHE113     -0.0003
     72  CZ       -14.3950   -9.0390  -10.7960 C.ar  113  PHE113     -0.0000
     73  N        -16.3720  -16.6720  -13.3630 N.3   163  GLY163     -0.1210
     74  CA       -16.3650  -15.8900  -14.5830 C.3   163  GLY163      0.1956
     75  C        -15.5860  -14.5980  -14.4490 C.2   163  GLY163      0.2611
     76  O        -15.1190  -14.0570  -15.4520 O.2   163  GLY163     -0.2717
     77  N        -15.4430  -14.0980  -13.2200 N.am  164  TRP164     -0.1976
     78  CA       -14.7000  -12.8550  -12.9560 C.3   164  TRP164      0.1640
     79  C        -13.1940  -13.0790  -12.8950 C.2   164  TRP164      0.2290
     80  O        -12.4230  -12.1190  -12.9020 O.2   164  TRP164     -0.2864
     81  CB       -15.1020  -12.2350  -11.6050 C.3   164  TRP164      0.0576
     82  CG       -16.5290  -12.0690  -11.4640 C.ar  164  TRP164      0.0006
     83  CD1      -17.3450  -11.8240  -12.4480 C.ar  164  TRP164      0.0946
     84  CD2      -17.3180  -12.0120  -10.2580 C.ar  164  TRP164      0.0152
     85  NE1      -18.6140  -11.5710  -11.9970 N.ar  164  TRP164     -0.2442
     86  CE2      -18.6260  -11.6660  -10.6440 C.ar  164  TRP164      0.0810
     87  CE3      -17.0430  -12.1860   -8.9000 C.ar  164  TRP164      0.0012
     88  CZ2      -19.6720  -11.5160   -9.7410 C.ar  164  TRP164      0.0191
     89  CZ3      -18.0810  -12.0370   -7.9990 C.ar  164  TRP164      0.0001
     90  CH2      -19.3780  -11.6890   -8.4230 C.ar  164  TRP164      0.0015
     91  N        -11.1150  -11.0610  -15.6840 N.3   167  TYR167     -0.1241
     92  CA       -11.0000   -9.6190  -15.4790 C.3   167  TYR167      0.1605
     93  C         -9.9970   -9.2950  -14.3620 C.2   167  TYR167      0.2264
     94  O         -9.4900   -8.1740  -14.2780 O.2   167  TYR167     -0.2867
     95  CB       -12.3940   -9.0580  -15.1350 C.3   167  TYR167      0.0534
     96  CG       -12.5410   -7.5420  -15.0810 C.ar  167  TYR167     -0.0201
     97  CD1      -13.7330   -6.9630  -14.6340 C.ar  167  TYR167     -0.0009
     98  CD2      -11.5050   -6.6870  -15.4750 C.ar  167  TYR167     -0.0009
     99  CE1      -13.8890   -5.5700  -14.5790 C.ar  167  TYR167      0.0417
    100  CE2      -11.6500   -5.2910  -15.4230 C.ar  167  TYR167      0.0417
    101  CZ       -12.8440   -4.7420  -14.9740 C.ar  167  TYR167      0.1957
    102  OH       -12.9960   -3.3740  -14.9130 O.3   167  TYR167     -0.2866
    103  N        -24.2380   -9.5180  -22.9650 N.3   200  LEU200     -0.1245
    104  CA       -22.8640   -9.9920  -22.9250 C.3   200  LEU200      0.1561
    105  C        -22.6250  -10.7380  -24.2450 C.2   200  LEU200      0.2260
    106  O        -21.7140  -11.5610  -24.3530 O.2   200  LEU200     -0.2867
    107  CB       -22.6690  -10.9220  -21.7230 C.3   200  LEU200      0.0270
    108  CG       -22.9250  -10.2520  -20.3670 C.3   200  LEU200      0.0019
    109  CD1      -22.8470  -11.2760  -19.2520 C.3   200  LEU200      0.0001
    110  CD2      -21.9110   -9.1300  -20.1480 C.3   200  LEU200      0.0001
@<TRIPOS>BOND
     1   106   105    2
     2   105   104    1
     3   103   104    1
     4   104   107    1
     5   107   108    1
     6   108   110    1
     7   108   109    1
     8    12    11    1
     9    12    13    1
    10    11     8    1
    11     8     9    1
    12     8     7    1
    13    13     7    1
    14    14     9   am
    15    14    15    1
    16     9    10    2
    17     7     3   am
    18    15    16    1
    19    91    92    1
    20    92    95    1
    21    92    93    1
    22    98   100   ar
    23    98    96   ar
    24    76    75    2
    25   100   101   ar
    26    95    96    1
    27    96    97   ar
    28   101   102    1
    29   101    99   ar
    30     3     4    2
    31     3     2    1
    32    97    99   ar
    33    74    75    1
    34    74    73    1
    35    75    77   am
    36    93    94    2
    37    16    17    2
    38    16    18   am
    39     2     1    1
    40     2     5    1
    41    18    19    1
    42     6     5    1
    43    77    78    1
    44    78    79    1
    45    78    81    1
    46    80    79    2
    47    83    85   ar
    48    83    82   ar
    49    21    20    2
    50    19    22    1
    51    19    20    1
    52    85    86   ar
    53    81    82    1
    54    82    84   ar
    55    20    23   am
    56    71    72   ar
    57    71    69   ar
    58    29    30    1
    59    72    70   ar
    60    86    84   ar
    61    86    88   ar
    62    69    67   ar
    63    84    87   ar
    64    35    34    1
    65    23    24    1
    66    34    33    1
    67    34    36    1
    68    33    30    1
    69    30    31    1
    70    88    90   ar
    71    70    68   ar
    72    25    24    1
    73    25    26    2
    74    24    27    1
    75    67    68   ar
    76    67    66    1
    77    31    32    2
    78    65    64    2
    79    87    89   ar
    80    66    63    1
    81    63    64    1
    82    63    62    1
    83    90    89   ar
    84    27    28    1
    85    59    58    2
    86    46    44   ar
    87    46    45   ar
    88    44    42   ar
    89    45    43   ar
    90    56    57    1
    91    58    57    1
    92    57    60    1
    93    42    43   ar
    94    42    41    1
    95    40    39    2
    96    38    41    1
    97    38    37    1
    98    38    39    1
    99    39    47   am
   100    60    61    1
   101    47    48    1
   102    49    48    1
   103    49    50    2
   104    48    51    1
   105    55    54    1
   106    53    54    1
   107    53    52    1
   108    51    52    1
