@<TRIPOS>MOLECULE
tmp/2gduB00.pdb
 183 175 0 0 0
SMALL
GASTEIGER

@<TRIPOS>ATOM
      1  N         27.5850   70.2900  -24.2330 N.3    50  ASP50      -0.1239
      2  CA        28.5320   70.7430  -25.2440 C.3    50  ASP50       0.1674
      3  C         27.8840   71.2900  -26.5130 C.2    50  ASP50       0.2266
      4  O         28.2820   70.9570  -27.6300 O.2    50  ASP50      -0.2867
      5  CB        29.5030   69.6040  -25.5750 C.3    50  ASP50       0.1410
      6  CG        30.6650   70.0560  -26.4380 C.2    50  ASP50       0.3668
      7  OD1       31.0280   71.2520  -26.3810 O.co2  50  ASP50      -0.2456
      8  OD2       31.2220   69.2040  -27.1610 O.co2  50  ASP50      -0.2456
      9  N         26.6800   68.7800  -29.2780 N.3    53  PHE53      -0.1241
     10  CA        27.5390   67.6140  -29.4550 C.3    53  PHE53       0.1605
     11  C         27.3980   66.5280  -28.3720 C.2    53  PHE53       0.2264
     12  O         28.1740   65.5700  -28.3300 O.2    53  PHE53      -0.2867
     13  CB        28.9990   68.0730  -29.6230 C.3    53  PHE53       0.0534
     14  CG        29.2830   68.6820  -30.9790 C.ar   53  PHE53      -0.0203
     15  CD1       29.5140   67.8700  -32.0850 C.ar   53  PHE53      -0.0042
     16  CD2       29.2560   70.0620  -31.1620 C.ar   53  PHE53      -0.0042
     17  CE1       29.7130   68.4180  -33.3510 C.ar   53  PHE53      -0.0003
     18  CE2       29.4540   70.6210  -32.4250 C.ar   53  PHE53      -0.0003
     19  CZ        29.6830   69.7970  -33.5230 C.ar   53  PHE53      -0.0000
     20  N         30.6570   59.7400  -29.4600 N.3    88  HIS88      -0.1241
     21  CA        30.0250   59.7230  -28.1490 C.3    88  HIS88       0.1621
     22  C         28.5770   60.1970  -28.1770 C.2    88  HIS88       0.2264
     23  O         28.0680   60.6180  -29.2090 O.2    88  HIS88      -0.2867
     24  CB        30.8110   60.6530  -27.2340 C.3    88  HIS88       0.0745
     25  CG        31.1050   61.9810  -27.8620 C.ar   88  HIS88       0.0817
     26  ND1       32.3020   62.2640  -28.4830 N.ar   88  HIS88      -0.2268
     27  CD2       30.3250   63.0770  -28.0360 C.ar   88  HIS88       0.1154
     28  CE1       32.2490   63.4730  -29.0130 C.ar   88  HIS88       0.1986
     29  NE2       31.0590   63.9880  -28.7560 N.ar   88  HIS88      -0.2212
     30  N         43.6870   65.8020  -25.9070 N.3   134  PRO134     -0.2116
     31  CA        43.7240   67.1840  -26.3930 C.3   134  PRO134      0.1372
     32  C         43.9560   68.1740  -25.2360 C.2   134  PRO134      0.2244
     33  O         44.0390   69.3820  -25.4440 O.2   134  PRO134     -0.2868
     34  CB        42.3530   67.3500  -27.0470 C.3   134  PRO134      0.0268
     35  CG        41.4750   66.5280  -26.1690 C.3   134  PRO134      0.0207
     36  CD        42.3100   65.2720  -25.9510 C.3   134  PRO134      0.0892
     37  N         35.7370   63.8200  -24.0600 N.3   156  PHE156     -0.1241
     38  CA        35.4600   65.2410  -23.8840 C.3   156  PHE156      0.1605
     39  C         34.8380   65.5430  -22.5210 C.2   156  PHE156      0.2264
     40  O         35.4690   65.2720  -21.5020 O.2   156  PHE156     -0.2867
     41  CB        34.5930   65.6980  -25.0540 C.3   156  PHE156      0.0534
     42  CG        35.2450   65.4460  -26.3930 C.ar  156  PHE156     -0.0203
     43  CD1       36.2680   66.2750  -26.8470 C.ar  156  PHE156     -0.0042
     44  CD2       34.9210   64.3160  -27.1370 C.ar  156  PHE156     -0.0042
     45  CE1       36.9700   65.9780  -28.0210 C.ar  156  PHE156     -0.0003
     46  CE2       35.6100   64.0030  -28.3100 C.ar  156  PHE156     -0.0003
     47  CZ        36.6430   64.8390  -28.7530 C.ar  156  PHE156     -0.0000
     48  N         29.6910   63.3270  -21.9140 N.3   160  GLN160     -0.1245
     49  CA        29.7560   62.7340  -23.2450 C.3   160  GLN160      0.1566
     50  C         30.4370   61.3720  -23.1620 C.2   160  GLN160      0.2260
     51  O         31.6670   61.2730  -23.1350 O.2   160  GLN160     -0.2867
     52  CB        30.5140   63.6670  -24.2000 C.3   160  GLN160      0.0367
     53  CG        29.6830   64.8830  -24.6260 C.3   160  GLN160      0.0905
     54  CD        30.5120   65.9980  -25.2460 C.2   160  GLN160      0.2608
     55  OE1       31.3760   66.5670  -24.5940 O.2   160  GLN160     -0.2717
     56  NE2       30.2410   66.3170  -26.5100 N.am  160  GLN160     -0.0878
     57  N         29.2960   65.3980  -41.8540 N.3   190  ARG190     -0.1245
     58  CA        30.5460   65.7460  -41.1900 C.3   190  ARG190      0.1563
     59  C         30.7700   64.7480  -40.0590 C.2   190  ARG190      0.2260
     60  O         29.9790   64.6930  -39.1130 O.2   190  ARG190     -0.2867
     61  CB        30.4660   67.1680  -40.6210 C.3   190  ARG190      0.0307
     62  CG        31.6380   67.5680  -39.7140 C.3   190  ARG190      0.0489
     63  CD        31.4780   69.0080  -39.2380 C.3   190  ARG190      0.2205
     64  NE        32.5950   69.4710  -38.4150 N.pl3 190  ARG190     -0.0865
     65  CZ        32.7800   69.1460  -37.1390 C.cat 190  ARG190      0.5346
     66  NH1       31.9180   68.3520  -36.5220 N.pl3 190  ARG190      0.1354
     67  NH2       33.8330   69.6120  -36.4800 N.pl3 190  ARG190      0.1354
     68  N         32.1480   63.9970  -36.9420 N.3   192  ASP192     -0.1225
     69  CA        32.7060   64.6930  -35.7880 C.3   192  ASP192      0.1805
     70  C         33.7170   63.9140  -34.9470 C.2   192  ASP192      0.2597
     71  O         33.4620   62.7770  -34.5540 O.2   192  ASP192     -0.2718
     72  CB        31.5820   65.1450  -34.8670 C.3   192  ASP192      0.1424
     73  CG        32.1010   65.8610  -33.6450 C.2   192  ASP192      0.3668
     74  OD1       32.6180   66.9890  -33.8070 O.co2 192  ASP192     -0.2456
     75  OD2       32.0050   65.2950  -32.5340 O.co2 192  ASP192     -0.2456
     76  N         34.8570   64.5430  -34.6610 N.am  193  ALA193     -0.1979
     77  CA        35.8930   63.9310  -33.8300 C.3   193  ALA193      0.1597
     78  C         36.1180   62.4580  -34.1440 C.2   193  ALA193      0.2287
     79  O         36.4250   61.6600  -33.2530 O.2   193  ALA193     -0.2864
     80  CB        35.5140   64.0850  -32.3580 C.3   193  ALA193      0.0319
     81  N         38.9880   60.0150  -32.8760 N.3   196  TYR196     -0.1241
     82  CA        38.9600   59.4040  -31.5430 C.3   196  TYR196      0.1605
     83  C         38.1500   58.1020  -31.4940 C.2   196  TYR196      0.2264
     84  O         38.2950   57.3080  -30.5670 O.2   196  TYR196     -0.2867
     85  CB        38.3390   60.3810  -30.5380 C.3   196  TYR196      0.0534
     86  CG        39.1620   61.6130  -30.2300 C.ar  196  TYR196     -0.0201
     87  CD1       40.0420   61.6340  -29.1490 C.ar  196  TYR196     -0.0009
     88  CD2       39.0530   62.7640  -31.0130 C.ar  196  TYR196     -0.0009
     89  CE1       40.7930   62.7730  -28.8520 C.ar  196  TYR196      0.0417
     90  CE2       39.8030   63.9070  -30.7260 C.ar  196  TYR196      0.0417
     91  CZ        40.6680   63.9040  -29.6440 C.ar  196  TYR196      0.1957
     92  OH        41.4090   65.0270  -29.3530 O.3   196  TYR196     -0.2866
     93  N         36.3350   65.4440  -39.7120 N.3   232  GLN232     -0.1231
     94  CA        36.9770   66.5050  -38.9560 C.3   232  GLN232      0.1698
     95  C         38.1450   65.8910  -38.2030 C.2   232  GLN232      0.2592
     96  O         37.9560   64.9970  -37.3800 O.2   232  GLN232     -0.2718
     97  CB        36.0260   67.1300  -37.9410 C.3   232  GLN232      0.0381
     98  CG        36.7230   68.2320  -37.1520 C.3   232  GLN232      0.0905
     99  CD        36.3440   68.2580  -35.6950 C.2   232  GLN232      0.2608
    100  OE1       36.0400   67.2250  -35.1030 O.2   232  GLN232     -0.2717
    101  NE2       36.3850   69.4460  -35.0950 N.am  232  GLN232     -0.0878
    102  N         39.3500   66.3650  -38.4850 N.am  233  VAL233     -0.1966
    103  CA        40.5340   65.8500  -37.8170 C.3   233  VAL233      0.1727
    104  C         41.5410   66.9500  -37.5460 C.2   233  VAL233      0.2616
    105  O         42.0670   67.5620  -38.4730 O.2   233  VAL233     -0.2715
    106  CB        41.2440   64.7710  -38.6610 C.3   233  VAL233      0.0290
    107  CG1       42.4870   64.2790  -37.9270 C.3   233  VAL233      0.0023
    108  CG2       40.2910   63.6080  -38.9500 C.3   233  VAL233      0.0023
    109  N         41.7920   67.2150  -36.2700 N.am  234  HIS234     -0.1973
    110  CA        42.7840   68.2090  -35.8830 C.3   234  HIS234      0.1656
    111  C         44.0030   67.3970  -35.4570 C.2   234  HIS234      0.2291
    112  O         43.9700   66.7080  -34.4380 O.2   234  HIS234     -0.2864
    113  CB        42.2730   69.0520  -34.7170 C.3   234  HIS234      0.0771
    114  CG        41.3380   70.1470  -35.1260 C.ar  234  HIS234      0.0820
    115  ND1       41.7600   71.2730  -35.8000 N.ar  234  HIS234     -0.2267
    116  CD2       40.0050   70.2990  -34.9360 C.ar  234  HIS234      0.1154
    117  CE1       40.7280   72.0740  -36.0010 C.ar  234  HIS234      0.1986
    118  NE2       39.6520   71.5060  -35.4850 N.ar  234  HIS234     -0.2212
    119  N         33.4400   76.6920  -35.4480 N.3   289  HIS289     -0.1226
    120  CA        32.6990   76.8990  -34.2100 C.3   289  HIS289      0.1752
    121  C         33.5940   76.6030  -33.0060 C.2   289  HIS289      0.2596
    122  O         33.1980   76.8140  -31.8650 O.2   289  HIS289     -0.2718
    123  CB        31.4490   76.0140  -34.1670 C.3   289  HIS289      0.0759
    124  CG        31.7400   74.5490  -34.2640 C.ar  289  HIS289      0.0818
    125  ND1       32.2960   73.9740  -35.3870 N.ar  289  HIS289     -0.2268
    126  CD2       31.5510   73.5420  -33.3800 C.ar  289  HIS289      0.1154
    127  CE1       32.4350   72.6750  -35.1900 C.ar  289  HIS289      0.1986
    128  NE2       31.9910   72.3870  -33.9790 N.ar  289  HIS289     -0.2212
    129  N         34.8010   76.1040  -33.2650 N.am  290  ASP290     -0.1974
    130  CA        35.7500   75.8200  -32.1880 C.3   290  ASP290      0.1709
    131  C         36.8200   76.8980  -32.2010 C.2   290  ASP290      0.2293
    132  O         36.7130   77.8660  -32.9460 O.2   290  ASP290     -0.2864
    133  CB        36.4240   74.4570  -32.3700 C.3   290  ASP290      0.1436
    134  CG        35.4610   73.3000  -32.2230 C.2   290  ASP290      0.3671
    135  OD1       34.5610   73.3700  -31.3580 O.co2 290  ASP290     -0.2456
    136  OD2       35.6150   72.3100  -32.9670 O.co2 290  ASP290     -0.2456
    137  N         37.7480   71.9380  -23.9180 N.3   341  LEU341     -0.1231
    138  CA        37.9710   70.5200  -24.1640 C.3   341  LEU341      0.1693
    139  C         39.3370   70.3280  -24.8180 C.2   341  LEU341      0.2592
    140  O         39.8710   69.2180  -24.8600 O.2   341  LEU341     -0.2718
    141  CB        36.8760   69.9730  -25.0790 C.3   341  LEU341      0.0284
    142  CG        35.4380   70.0340  -24.5510 C.3   341  LEU341      0.0019
    143  CD1       34.4750   69.5660  -25.6400 C.3   341  LEU341      0.0001
    144  CD2       35.3100   69.1580  -23.3090 C.3   341  LEU341      0.0001
    145  N         39.8960   71.4270  -25.3140 N.am  342  ASP342     -0.1974
    146  CA        41.1920   71.4120  -25.9860 C.3   342  ASP342      0.1709
    147  C         42.0730   72.4990  -25.3820 C.2   342  ASP342      0.2293
    148  O         41.7100   73.6780  -25.3570 O.2   342  ASP342     -0.2864
    149  CB        41.0020   71.6540  -27.4860 C.3   342  ASP342      0.1436
    150  CG        42.2760   71.4420  -28.2820 C.2   342  ASP342      0.3671
    151  OD1       43.2840   72.1210  -27.9860 O.co2 342  ASP342     -0.2456
    152  OD2       42.2610   70.5970  -29.2110 O.co2 342  ASP342     -0.2456
    153  N         43.8640   75.0530  -28.6450 N.3   345  GLN345     -0.1245
    154  CA        43.1640   75.8580  -29.6400 C.3   345  GLN345      0.1566
    155  C         43.0250   77.2640  -29.0490 C.2   345  GLN345      0.2260
    156  O         42.7110   77.4210  -27.8690 O.2   345  GLN345     -0.2867
    157  CB        41.7870   75.2610  -29.9800 C.3   345  GLN345      0.0367
    158  CG        41.8710   73.9200  -30.7240 C.3   345  GLN345      0.0905
    159  CD        40.5220   73.4000  -31.2020 C.2   345  GLN345      0.2608
    160  OE1       39.5060   73.5630  -30.5270 O.2   345  GLN345     -0.2717
    161  NE2       40.5150   72.7450  -32.3640 N.am  345  GLN345     -0.0878
    162  N         35.1280   78.7430  -25.8200 N.3   398  ARG398     -0.1245
    163  CA        34.7100   78.8770  -27.2090 C.3   398  ARG398      0.1563
    164  C         33.5290   79.8100  -27.4380 C.2   398  ARG398      0.2260
    165  O         33.2790   80.2160  -28.5710 O.2   398  ARG398     -0.2867
    166  CB        34.4040   77.5010  -27.7900 C.3   398  ARG398      0.0307
    167  CG        35.6490   76.6340  -27.9730 C.3   398  ARG398      0.0489
    168  CD        35.2640   75.2270  -28.3640 C.3   398  ARG398      0.2205
    169  NE        34.6560   74.5150  -27.2450 N.pl3 398  ARG398     -0.0865
    170  CZ        34.0840   73.3220  -27.3470 C.cat 398  ARG398      0.5346
    171  NH1       34.0390   72.7100  -28.5230 N.pl3 398  ARG398      0.1354
    172  NH2       33.5670   72.7370  -26.2750 N.pl3 398  ARG398      0.1354
    173  N         31.0700   82.5850  -30.3470 N.3   402  ARG402     -0.1245
    174  CA        29.7350   82.0320  -30.6040 C.3   402  ARG402      0.1563
    175  C         28.5990   83.0150  -30.2930 C.2   402  ARG402      0.2260
    176  O         27.5760   82.6340  -29.7160 O.2   402  ARG402     -0.2867
    177  CB        29.5220   80.7520  -29.7800 C.3   402  ARG402      0.0307
    178  CG        30.4390   79.5910  -30.1610 C.3   402  ARG402      0.0489
    179  CD        30.2020   78.3710  -29.2690 C.3   402  ARG402      0.2205
    180  NE        31.0430   77.2460  -29.6730 N.pl3 402  ARG402     -0.0865
    181  CZ        31.0460   76.0540  -29.0860 C.cat 402  ARG402      0.5346
    182  NH1       30.2500   75.8140  -28.0520 N.pl3 402  ARG402      0.1354
    183  NH2       31.8370   75.0950  -29.5460 N.pl3 402  ARG402      0.1354
@<TRIPOS>BOND
     1    57    58    1
     2    58    61    1
     3    58    59    1
     4    61    62    1
     5    59    60    2
     6    62    63    1
     7    93    94    1
     8    63    64    1
     9    94    95    1
    10    94    97    1
    11   108   106    1
    12   106   107    1
    13   106   103    1
    14   102    95   am
    15   102   103    1
    16   105   104    2
    17    64    65    2
    18    95    96    2
    19    97    98    1
    20   103   104    1
    21   104   109   am
    22    98    99    1
    23    65    66    1
    24    65    67    1
    25    68    69    1
    26   109   110    1
    27   117   115   ar
    28   117   118   ar
    29   110   111    1
    30   110   113    1
    31   115   114   ar
    32    69    70    1
    33    69    72    1
    34    99   100    2
    35    99   101   am
    36   118   116   ar
    37   111   112    2
    38   119   120    1
    39   125   127   ar
    40   125   124   ar
    41   127   128   ar
    42   114   116   ar
    43   114   113    1
    44    70    76   am
    45    70    71    2
    46    72    73    1
    47    76    77    1
    48   124   123    1
    49   124   126   ar
    50   120   123    1
    51   120   121    1
    52    78    77    1
    53    78    79    2
    54   128   126   ar
    55    77    80    1
    56    74    73   ar
    57    73    75   ar
    58    19    17   ar
    59    19    18   ar
    60    17    15   ar
    61   129   121   am
    62   129   130    1
    63   121   122    2
    64   136   134   ar
    65   132   131    2
    66    81    82    1
    67    18    16   ar
    68   133   134    1
    69   133   130    1
    70   161   159   am
    71   134   135   ar
    72   131   130    1
    73    15    14   ar
    74    82    83    1
    75    82    85    1
    76    83    84    2
    77   159   158    1
    78   159   160    2
    79    16    14   ar
    80    88    90   ar
    81    88    86   ar
    82    14    13    1
    83    90    91   ar
    84   158   157    1
    85   174   173    1
    86   174   175    1
    87   174   177    1
    88    85    86    1
    89   175   176    2
    90    86    87   ar
    91   178   177    1
    92   178   179    1
    93   157   154    1
    94   180   179    1
    95   180   181    2
    96    91    92    1
    97    91    89   ar
    98   154   155    1
    99   154   153    1
   100    13    10    1
   101   183   181    1
   102    20    21    1
   103    10     9    1
   104    10    11    1
   105   152   150   ar
   106    23    22    2
   107    87    89   ar
   108   181   182    1
   109   155   156    2
   110    28    29   ar
   111    28    26   ar
   112    29    27   ar
   113    47    46   ar
   114    47    45   ar
   115   165   164    2
   116   171   170    1
   117    26    25   ar
   118    11    12    2
   119   168   167    1
   120   168   169    1
   121    46    44   ar
   122   150   151   ar
   123   150   149    1
   124    22    21    1
   125    21    24    1
   126    27    25   ar
   127    45    43   ar
   128   167   166    1
   129    25    24    1
   130   166   163    1
   131     4     3    2
   132   149   146    1
   133   164   163    1
   134   170   169    2
   135   170   172    1
   136   163   162    1
   137     8     6   ar
   138    44    42   ar
   139    34    31    1
   140    34    35    1
   141    43    42   ar
   142     3     2    1
   143    56    54   am
   144     6     7   ar
   145     6     5    1
   146    42    41    1
   147    31    30    1
   148    31    32    1
   149    35    36    1
   150   146   147    1
   151   146   145    1
   152    36    30    1
   153   143   142    1
   154     5     2    1
   155    33    32    2
   156   147   148    2
   157   145   139   am
   158    54    53    1
   159    54    55    2
   160     2     1    1
   161   141   142    1
   162   141   138    1
   163    41    38    1
   164   140   139    2
   165   139   138    1
   166    53    52    1
   167   142   144    1
   168    52    49    1
   169   138   137    1
   170    37    38    1
   171    38    39    1
   172    49    50    1
   173    49    48    1
   174    50    51    2
   175    39    40    2
