@<TRIPOS>MOLECULE
tmp/2gdvA00.pdb
 130 122 0 0 0
SMALL
GASTEIGER

@<TRIPOS>ATOM
      1  N         28.8530   64.3410  -30.3140 N.3    50  ASP50      -0.1239
      2  CA        29.2020   63.4940  -31.4610 C.3    50  ASP50       0.1674
      3  C         29.7540   64.2550  -32.6890 C.2    50  ASP50       0.2266
      4  O         29.2800   64.0740  -33.8190 O.2    50  ASP50      -0.2867
      5  CB        27.9910   62.6240  -31.8480 C.3    50  ASP50       0.1410
      6  CG        28.3680   61.4310  -32.7180 C.2    50  ASP50       0.3668
      7  OD1       29.4770   60.8870  -32.9040 O.co2  50  ASP50      -0.2456
      8  OD2       27.3250   61.0490  -33.2870 O.co2  50  ASP50      -0.2456
      9  N         27.2790   65.9430  -35.0720 N.3    53  PHE53      -0.1241
     10  CA        26.0380   65.1920  -35.2760 C.3    53  PHE53       0.1605
     11  C         24.9900   65.3150  -34.1670 C.2    53  PHE53       0.2264
     12  O         23.9950   64.5830  -34.1450 O.2    53  PHE53      -0.2867
     13  CB        26.3400   63.7370  -35.6280 C.3    53  PHE53       0.0534
     14  CG        26.9230   63.5630  -37.0040 C.ar   53  PHE53      -0.0203
     15  CD1       26.0850   63.4690  -38.1300 C.ar   53  PHE53      -0.0042
     16  CD2       28.3150   63.4790  -37.1830 C.ar   53  PHE53      -0.0042
     17  CE1       26.6310   63.2860  -39.4350 C.ar   53  PHE53      -0.0003
     18  CE2       28.8790   63.2980  -38.4740 C.ar   53  PHE53      -0.0003
     19  CZ        28.0350   63.1980  -39.6050 C.ar   53  PHE53      -0.0000
     20  N         17.8310   62.7670  -35.2740 N.3    88  HIS88      -0.1241
     21  CA        17.9780   63.3560  -33.9390 C.3    88  HIS88       0.1621
     22  C         18.5510   64.7720  -33.9260 C.2    88  HIS88       0.2264
     23  O         18.9780   65.2900  -34.9560 O.2    88  HIS88      -0.2867
     24  CB        18.9250   62.4450  -33.1220 C.3    88  HIS88       0.0745
     25  CG        20.1800   62.0750  -33.8580 C.ar   88  HIS88       0.0817
     26  ND1       20.2370   61.0100  -34.7300 N.ar   88  HIS88      -0.2268
     27  CD2       21.3840   62.6910  -33.9410 C.ar   88  HIS88       0.1154
     28  CE1       21.4160   60.9920  -35.3260 C.ar   88  HIS88       0.1986
     29  NE2       22.1320   62.0010  -34.8640 N.ar   88  HIS88      -0.2212
     30  N         21.7040   57.0080  -30.6470 N.3   156  PHE156     -0.1241
     31  CA        23.1470   57.1740  -30.5260 C.3   156  PHE156      0.1605
     32  C         23.5930   57.5560  -29.1200 C.2   156  PHE156      0.2264
     33  O         23.3850   56.7530  -28.2090 O.2   156  PHE156     -0.2867
     34  CB        23.6440   58.0970  -31.6510 C.3   156  PHE156      0.0534
     35  CG        23.3540   57.5500  -33.0300 C.ar  156  PHE156     -0.0203
     36  CD1       24.1860   56.5650  -33.5970 C.ar  156  PHE156     -0.0042
     37  CD2       22.1870   57.9240  -33.7130 C.ar  156  PHE156     -0.0042
     38  CE1       23.8540   55.9450  -34.8340 C.ar  156  PHE156     -0.0003
     39  CE2       21.8330   57.3180  -34.9490 C.ar  156  PHE156     -0.0003
     40  CZ        22.6660   56.3260  -35.5110 C.ar  156  PHE156     -0.0000
     41  N         21.7900   62.8140  -27.9010 N.3   160  GLN160     -0.1245
     42  CA        21.1500   62.9120  -29.2100 C.3   160  GLN160      0.1566
     43  C         19.7430   62.3450  -29.1090 C.2   160  GLN160      0.2260
     44  O         19.5350   61.1240  -29.2070 O.2   160  GLN160     -0.2867
     45  CB        21.9750   62.1620  -30.2570 C.3   160  GLN160      0.0367
     46  CG        23.2840   62.8590  -30.6060 C.3   160  GLN160      0.0905
     47  CD        24.2890   61.9580  -31.2870 C.2   160  GLN160      0.2608
     48  OE1       24.8530   61.0750  -30.6620 O.2   160  GLN160     -0.2717
     49  NE2       24.5390   62.1960  -32.5680 N.am  160  GLN160     -0.0878
     50  N         23.1080   64.5830  -47.6480 N.3   190  ARG190     -0.1245
     51  CA        23.3790   63.2670  -47.0940 C.3   190  ARG190      0.1563
     52  C         22.4250   63.1070  -45.9130 C.2   190  ARG190      0.2260
     53  O         22.4920   63.8680  -44.9400 O.2   190  ARG190     -0.2867
     54  CB        24.8280   63.1400  -46.6180 C.3   190  ARG190      0.0307
     55  CG        25.1810   61.7640  -46.0260 C.3   190  ARG190      0.0489
     56  CD        26.5320   61.8370  -45.3690 C.3   190  ARG190      0.2205
     57  NE        26.9660   60.6080  -44.7100 N.pl3 190  ARG190     -0.0865
     58  CZ        26.8190   60.3570  -43.4080 C.cat 190  ARG190      0.5346
     59  NH1       26.2320   61.2360  -42.6060 N.pl3 190  ARG190      0.1354
     60  NH2       27.3370   59.2590  -42.8880 N.pl3 190  ARG190      0.1354
     61  N         21.7630   61.5000  -42.9300 N.3   192  ASP192     -0.1225
     62  CA        22.4500   60.7600  -41.8740 C.3   192  ASP192      0.1805
     63  C         21.4810   59.9580  -41.0160 C.2   192  ASP192      0.2597
     64  O         20.4190   60.4570  -40.6210 O.2   192  ASP192     -0.2718
     65  CB        23.2840   61.7220  -41.0020 C.3   192  ASP192      0.1424
     66  CG        23.9300   61.0350  -39.7850 C.2   192  ASP192      0.3668
     67  OD1       23.4180   61.2300  -38.6550 O.co2 192  ASP192     -0.2456
     68  OD2       25.0980   60.2280  -39.9690 O.co2 192  ASP192     -0.2456
     69  N         21.8480   58.6930  -40.8030 N.am  193  ALA193     -0.1979
     70  CA        21.1120   57.7330  -39.9760 C.3   193  ALA193      0.1597
     71  C         19.6160   57.6240  -40.2750 C.2   193  ALA193      0.2287
     72  O         18.8090   57.3520  -39.3830 O.2   193  ALA193     -0.2864
     73  CB        21.3480   58.0570  -38.4990 C.3   193  ALA193      0.0319
     74  N         22.7480   57.2720  -46.0330 N.3   232  GLU232     -0.1245
     75  CA        23.7450   56.5080  -45.2940 C.3   232  GLU232      0.1567
     76  C         23.0300   55.3410  -44.6290 C.2   232  GLU232      0.2260
     77  O         22.1250   55.5520  -43.8160 O.2   232  GLU232     -0.2867
     78  CB        24.4130   57.3720  -44.2160 C.3   232  GLU232      0.0388
     79  CG        25.4470   56.6210  -43.3680 C.3   232  GLU232      0.1160
     80  CD        25.3670   56.9540  -41.8870 C.2   232  GLU232      0.3649
     81  OE1       26.4260   56.6870  -41.2700 O.co2 232  GLU232     -0.2457
     82  OE2       24.3660   57.4380  -41.3170 O.co2 232  GLU232     -0.2457
     83  N         34.3970   59.1900  -42.1690 N.3   289  HIS289     -0.1226
     84  CA        34.6990   59.8400  -40.8900 C.3   289  HIS289      0.1752
     85  C         34.4600   58.8900  -39.7130 C.2   289  HIS289      0.2596
     86  O         34.7310   59.2240  -38.5610 O.2   289  HIS289     -0.2718
     87  CB        33.8990   61.1410  -40.7350 C.3   289  HIS289      0.0759
     88  CG        32.4190   60.9550  -40.8060 C.ar  289  HIS289      0.0818
     89  ND1       31.7830   60.4650  -41.9260 N.ar  289  HIS289     -0.2268
     90  CD2       31.4500   61.1700  -39.8850 C.ar  289  HIS289      0.1154
     91  CE1       30.4870   60.3820  -41.6920 C.ar  289  HIS289      0.1986
     92  NE2       30.2570   60.8050  -40.4610 N.ar  289  HIS289     -0.2212
     93  N         33.9170   57.7200  -40.0300 N.am  290  ASP290     -0.1974
     94  CA        33.6430   56.6830  -39.0460 C.3   290  ASP290      0.1709
     95  C         34.6450   55.5600  -39.2420 C.2   290  ASP290      0.2293
     96  O         35.6070   55.7000  -40.0090 O.2   290  ASP290     -0.2864
     97  CB        32.2160   56.1500  -39.2110 C.3   290  ASP290      0.1436
     98  CG        31.1670   57.2010  -38.9310 C.2   290  ASP290      0.3671
     99  OD1       31.2930   58.0340  -38.0100 O.co2 290  ASP290     -0.2456
    100  OD2       30.1870   57.1870  -39.7040 O.co2 290  ASP290     -0.2456
    101  N         30.1390   54.1960  -30.7370 N.3   341  LEU341     -0.1245
    102  CA        28.6930   54.1010  -30.9400 C.3   341  LEU341      0.1561
    103  C         28.3460   52.8370  -31.7300 C.2   341  LEU341      0.2260
    104  O         27.1810   52.4320  -31.7900 O.2   341  LEU341     -0.2867
    105  CB        28.1520   55.3470  -31.6550 C.3   341  LEU341      0.0270
    106  CG        28.2310   56.6770  -30.8980 C.3   341  LEU341      0.0019
    107  CD1       27.6600   57.7830  -31.7660 C.3   341  LEU341      0.0001
    108  CD2       27.4750   56.5880  -29.5720 C.3   341  LEU341      0.0001
    109  N         36.8440   56.6150  -32.8070 N.3   399  ARG399     -0.1245
    110  CA        36.8840   57.1380  -34.1710 C.3   399  ARG399      0.1563
    111  C         37.8940   58.2700  -34.3950 C.2   399  ARG399      0.2260
    112  O         38.2740   58.5420  -35.5360 O.2   399  ARG399     -0.2867
    113  CB        35.4800   57.5660  -34.6000 C.3   399  ARG399      0.0307
    114  CG        34.5320   56.3860  -34.7670 C.3   399  ARG399      0.0489
    115  CD        33.1180   56.8160  -35.0700 C.3   399  ARG399      0.2205
    116  NE        32.4520   57.4330  -33.9250 N.pl3 399  ARG399     -0.0865
    117  CZ        31.2650   58.0300  -33.9850 C.cat 399  ARG399      0.5346
    118  NH1       30.6020   58.0940  -35.1390 N.pl3 399  ARG399      0.1354
    119  NH2       30.7340   58.5600  -32.8890 N.pl3 399  ARG399      0.1354
    120  N         40.6590   60.7490  -37.2240 N.3   403  ARG403     -0.1245
    121  CA        40.2040   62.1470  -37.3350 C.3   403  ARG403      0.1563
    122  C         41.2670   63.1960  -36.9490 C.2   403  ARG403      0.2260
    123  O         40.9600   64.2030  -36.3060 O.2   403  ARG403     -0.2867
    124  CB        38.9150   62.3760  -36.5250 C.3   403  ARG403      0.0307
    125  CG        37.6790   61.5920  -36.9650 C.3   403  ARG403      0.0489
    126  CD        36.5120   61.8240  -36.0350 C.3   403  ARG403      0.2205
    127  NE        35.3530   61.0340  -36.4500 N.pl3 403  ARG403     -0.0865
    128  CZ        34.1910   60.9880  -35.8050 C.cat 403  ARG403      0.5346
    129  NH1       34.0100   61.6950  -34.6900 N.pl3 403  ARG403      0.1354
    130  NH2       33.2050   60.2340  -36.2850 N.pl3 403  ARG403      0.1354
@<TRIPOS>BOND
     1    50    51    1
     2    51    54    1
     3    51    52    1
     4    54    55    1
     5    74    75    1
     6    55    56    1
     7    52    53    2
     8    56    57    1
     9    75    76    1
    10    75    78    1
    11    57    58    2
    12    76    77    2
    13    78    79    1
    14    58    60    1
    15    58    59    1
    16    79    80    1
    17    61    62    1
    18    83    84    1
    19    89    91   ar
    20    89    88   ar
    21    80    82   ar
    22    80    81   ar
    23    62    63    1
    24    62    65    1
    25    91    92   ar
    26    63    69   am
    27    63    64    2
    28    65    66    1
    29    84    87    1
    30    84    85    1
    31    88    87    1
    32    88    90   ar
    33    69    70    1
    34    92    90   ar
    35    71    70    1
    36    71    72    2
    37    93    85   am
    38    93    94    1
    39    96    95    2
    40    70    73    1
    41    68    66   ar
    42    66    67   ar
    43    85    86    2
    44   100    98   ar
    45    19    17   ar
    46    19    18   ar
    47    17    15   ar
    48    95    94    1
    49    97    94    1
    50    97    98    1
    51    98    99   ar
    52    18    16   ar
    53    15    14   ar
    54   121   120    1
    55   121   122    1
    56   121   124    1
    57    16    14   ar
    58    14    13    1
    59   125   124    1
    60   125   126    1
    61   122   123    2
    62   127   126    1
    63   127   128    2
    64   130   128    1
    65   128   129    1
    66    13    10    1
    67   112   111    2
    68    40    39   ar
    69    40    38   ar
    70    28    29   ar
    71    28    26   ar
    72    10     9    1
    73    10    11    1
    74    20    21    1
    75   118   117    1
    76   115   114    1
    77   115   116    1
    78    23    22    2
    79    39    37   ar
    80    29    27   ar
    81    38    36   ar
    82   114   113    1
    83    26    25   ar
    84   113   110    1
    85   111   110    1
    86   110   109    1
    87    11    12    2
    88   117   116    2
    89   117   119    1
    90    27    25   ar
    91    21    22    1
    92    21    24    1
    93    25    24    1
    94     4     3    2
    95    37    35   ar
    96    36    35   ar
    97     8     6   ar
    98    35    34    1
    99     7     6   ar
   100     6     5    1
   101     3     2    1
   102    49    47   am
   103     5     2    1
   104   104   103    2
   105   107   106    1
   106   103   102    1
   107   105   102    1
   108   105   106    1
   109    34    31    1
   110     2     1    1
   111    47    48    2
   112    47    46    1
   113   102   101    1
   114   106   108    1
   115    30    31    1
   116    46    45    1
   117    31    32    1
   118    45    42    1
   119    42    43    1
   120    42    41    1
   121    44    43    2
   122    32    33    2
