@<TRIPOS>MOLECULE
tmp/2ge3A00.pdb
 192 186 0 0 0
SMALL
GASTEIGER

@<TRIPOS>ATOM
      1  N         30.0030   31.6810   12.7710 N.3    23  VAL23      -0.1245
      2  CA        31.1290   32.1700   13.5640 C.3    23  VAL23       0.1561
      3  C         30.7430   32.5670   15.0150 C.2    23  VAL23       0.2260
      4  O         31.5260   32.3120   15.9800 O.2    23  VAL23      -0.2867
      5  CB        31.8860   33.3280   12.8210 C.3    23  VAL23       0.0252
      6  CG1       32.9680   33.9180   13.6390 C.3    23  VAL23       0.0019
      7  CG2       32.4330   32.8590   11.3930 C.3    23  VAL23       0.0019
      8  N         35.1410   33.9010   19.7460 N.3    29  TYR29      -0.1227
      9  CA        35.7530   35.0800   19.1900 C.3    29  TYR29       0.1736
     10  C         34.8890   36.3290   19.2430 C.2    29  TYR29       0.2595
     11  O         35.3670   37.3830   19.5700 O.2    29  TYR29      -0.2718
     12  CB        36.1560   34.7910   17.7540 C.3    29  TYR29       0.0548
     13  CG        36.8030   33.4420   17.5420 C.ar   29  TYR29      -0.0200
     14  CD1       36.1100   32.4230   16.8730 C.ar   29  TYR29      -0.0009
     15  CD2       38.1130   33.1750   17.9940 C.ar   29  TYR29      -0.0009
     16  CE1       36.7140   31.1670   16.6000 C.ar   29  TYR29       0.0417
     17  CE2       38.7140   31.9320   17.7720 C.ar   29  TYR29       0.0417
     18  CZ        38.0020   30.9450   17.0620 C.ar   29  TYR29       0.1957
     19  OH        38.5490   29.7120   16.8170 O.3    29  TYR29      -0.2866
     20  N         33.6170   36.2290   18.9030 N.am   30  LEU30      -0.1966
     21  CA        32.7620   37.4190   18.7660 C.3    30  LEU30       0.1728
     22  C         32.1030   37.8140   20.0710 C.2    30  LEU30       0.2616
     23  O         31.9450   36.9800   20.9570 O.2    30  LEU30      -0.2715
     24  CB        31.6660   37.1070   17.6800 C.3    30  LEU30       0.0311
     25  CG        32.1640   36.8470   16.2610 C.3    30  LEU30       0.0022
     26  CD1       31.0380   36.6440   15.2330 C.3    30  LEU30       0.0001
     27  CD2       33.1380   37.9190   15.8250 C.3    30  LEU30       0.0001
     28  N         31.6180   39.0230   20.1450 N.am   31  SER31      -0.1950
     29  CA        30.9010   39.4760   21.3430 C.3    31  SER31       0.1924
     30  C         29.4030   39.1670   21.3810 C.2    31  SER31       0.2314
     31  O         28.7290   39.4130   22.3950 O.2    31  SER31      -0.2863
     32  CB        31.0440   41.0000   21.5610 C.3    31  SER31       0.2116
     33  OG        30.1760   41.7140   20.6820 O.3    31  SER31      -0.2180
     34  N         34.2600   45.1910   12.8920 N.3    84  GLY84      -0.1225
     35  CA        34.0810   43.7420   13.1950 C.3    84  GLY84       0.1811
     36  C         34.3350   42.8890   11.9370 C.2    84  GLY84       0.2280
     37  O         34.2590   43.3670   10.8220 O.2    84  GLY84      -0.2866
     38  N         34.8920   38.4380   10.5150 N.3    85  GLY85      -0.1210
     39  CA        34.8190   37.0090   10.7990 C.3    85  GLY85       0.1956
     40  C         35.0300   36.2450    9.5220 C.2    85  GLY85       0.2611
     41  O         34.7170   36.7210    8.4150 O.2    85  GLY85      -0.2717
     42  N         35.5260   35.0300    9.6460 N.am   86  ILE86      -0.1979
     43  CA        35.7860   34.1880    8.4860 C.3    86  ILE86       0.1595
     44  C         35.4340   32.7610    8.9250 C.2    86  ILE86       0.2287
     45  O         35.7910   32.3710   10.0380 O.2    86  ILE86      -0.2864
     46  CB        37.3120   34.3250    8.0390 C.3    86  ILE86       0.0276
     47  CG1       37.6040   35.7300    7.4970 C.3    86  ILE86       0.0022
     48  CG2       37.7200   33.2810    6.9820 C.3    86  ILE86       0.0022
     49  CD1       38.9990   35.9290    6.9880 C.3    86  ILE86       0.0001
     50  N         40.3010   30.4500    7.1890 N.3    91  ARG91      -0.1231
     51  CA        41.2470   31.1970    8.0380 C.3    91  ARG91       0.1694
     52  C         42.6890   30.8860    7.7290 C.2    91  ARG91       0.2592
     53  O         43.0310   29.8300    7.1550 O.2    91  ARG91      -0.2718
     54  CB        40.9970   30.9590    9.5350 C.3    91  ARG91       0.0321
     55  CG        39.5850   31.3570    9.9550 C.3    91  ARG91       0.0489
     56  CD        39.1890   30.9250   11.3670 C.3    91  ARG91       0.2205
     57  NE        37.7560   31.2190   11.5450 N.pl3  91  ARG91      -0.0865
     58  CZ        36.9620   30.7350   12.4750 C.cat  91  ARG91       0.5346
     59  NH1       37.4250   29.8370   13.3620 N.pl3  91  ARG91       0.1354
     60  NH2       35.6660   31.0890   12.4590 N.pl3  91  ARG91       0.1354
     61  N         43.5260   31.7890    8.2430 N.am   92  ASN92      -0.1960
     62  CA        44.9560   31.6640    8.2330 C.3    92  ASN92       0.1819
     63  C         45.5040   31.6070    6.8310 C.2    92  ASN92       0.2621
     64  O         46.5610   31.0600    6.6000 O.2    92  ASN92      -0.2715
     65  CB        45.4200   30.4500    9.0700 C.3    92  ASN92       0.1195
     66  CG        46.8280   30.6790    9.6750 C.2    92  ASN92       0.2630
     67  OD1       47.5970   29.7370    9.8780 O.2    92  ASN92      -0.2716
     68  ND2       47.1780   31.9380    9.9000 N.am   92  ASN92      -0.0877
     69  N         44.8290   32.2060    5.8700 N.am   93  LYS93      -0.1963
     70  CA        45.3370   32.1200    4.4980 C.3    93  LYS93       0.1728
     71  C         45.4850   33.5400    3.8790 C.2    93  LYS93       0.2617
     72  O         45.5270   33.6800    2.6900 O.2    93  LYS93      -0.2715
     73  CB        44.3870   31.2490    3.6530 C.3    93  LYS93       0.0311
     74  CG        44.3930   29.7050    4.0040 C.3    93  LYS93       0.0038
     75  CD        43.3830   28.9580    3.0610 C.3    93  LYS93       0.0206
     76  CE        42.8560   27.6730    3.6420 C.3    93  LYS93       0.1093
     77  NZ        42.5300   27.7990    5.1040 N.3    93  LYS93      -0.1314
     78  N         45.5000   34.5890    4.6840 N.am   94  GLY94      -0.1940
     79  CA        45.7430   35.9120    4.1580 C.3    94  GLY94       0.2014
     80  C         44.4700   36.6450    3.7620 C.2    94  GLY94       0.2639
     81  O         44.5110   37.8250    3.3280 O.2    94  GLY94      -0.2714
     82  N         43.3470   35.9600    3.9030 N.am   95  LEU95      -0.1963
     83  CA        42.0560   36.5290    3.5400 C.3    95  LEU95       0.1728
     84  C         41.5360   37.6820    4.4870 C.2    95  LEU95       0.2617
     85  O         40.9650   38.7120    4.0280 O.2    95  LEU95      -0.2715
     86  CB        41.0170   35.4080    3.4460 C.3    95  LEU95       0.0311
     87  CG        39.6020   35.8660    3.0970 C.3    95  LEU95       0.0022
     88  CD1       39.6090   36.4710    1.5830 C.3    95  LEU95       0.0001
     89  CD2       38.6880   34.6600    3.2190 C.3    95  LEU95       0.0001
     90  N         41.7840   37.5470    5.7760 N.am   96  GLY96      -0.1940
     91  CA        41.4500   38.6180    6.7000 C.3    96  GLY96       0.2014
     92  C         42.2360   39.8640    6.3950 C.2    96  GLY96       0.2638
     93  O         41.7120   40.9590    6.4730 O.2    96  GLY96      -0.2714
     94  N         43.5190   39.6910    6.0820 N.am   97  ALA97      -0.1977
     95  CA        44.3820   40.8210    5.7100 C.3    97  ALA97       0.1597
     96  C         43.8450   41.5240    4.5120 C.2    97  ALA97       0.2287
     97  O         43.7400   42.7370    4.5370 O.2    97  ALA97      -0.2864
     98  CB        45.8070   40.3570    5.5230 C.3    97  ALA97       0.0319
     99  N         38.6120   48.9190   17.6430 N.3   116  LEU116     -0.1231
    100  CA        38.2160   47.5150   17.7910 C.3   116  LEU116      0.1693
    101  C         38.5470   47.0430   19.1820 C.2   116  LEU116      0.2593
    102  O         39.3910   47.6240   19.9130 O.2   116  LEU116     -0.2718
    103  CB        38.8350   46.6150   16.6880 C.3   116  LEU116      0.0284
    104  CG        40.3180   46.3920   16.5180 C.3   116  LEU116      0.0019
    105  CD1       40.9350   45.4770   17.6950 C.3   116  LEU116      0.0001
    106  CD2       40.5790   45.8350   15.1410 C.3   116  LEU116      0.0001
    107  N         37.8120   46.0370   19.6010 N.am  117  SER117     -0.1938
    108  CA        38.0820   45.3070   20.8410 C.3   117  SER117      0.2055
    109  C         38.3230   43.8510   20.4980 C.2   117  SER117      0.2643
    110  O         37.5930   43.3280   19.6960 O.2   117  SER117     -0.2714
    111  CB        36.8500   45.3960   21.7160 C.3   117  SER117      0.2130
    112  OG        36.9750   46.6860   22.3650 O.3   117  SER117     -0.2179
    113  N         39.3220   43.2090   21.0890 N.am  118  VAL118     -0.1963
    114  CA        39.6270   41.8260   20.8200 C.3   118  VAL118      0.1727
    115  C         39.9030   41.0520   22.1290 C.2   118  VAL118      0.2616
    116  O         40.5420   41.5940   23.0430 O.2   118  VAL118     -0.2715
    117  CB        40.8140   41.7310   19.7860 C.3   118  VAL118      0.0290
    118  CG1       42.1370   42.3880   20.3580 C.3   118  VAL118      0.0023
    119  CG2       41.0490   40.3720   19.3480 C.3   118  VAL118      0.0023
    120  N         39.4430   39.7970   22.2080 N.am  119  HIS119     -0.1973
    121  CA        39.7460   38.9720   23.3560 C.3   119  HIS119      0.1656
    122  C         41.2300   38.7630   23.4910 C.2   119  HIS119      0.2291
    123  O         41.9300   38.4690   22.5010 O.2   119  HIS119     -0.2864
    124  CB        38.9860   37.6140   23.3440 C.3   119  HIS119      0.0771
    125  CG        37.4940   37.7250   23.3010 C.ar  119  HIS119      0.0820
    126  ND1       36.6750   36.6430   23.0840 N.ar  119  HIS119     -0.2267
    127  CD2       36.6600   38.7870   23.4380 C.ar  119  HIS119      0.1154
    128  CE1       35.4140   37.0350   23.0380 C.ar  119  HIS119      0.1986
    129  NE2       35.3810   38.3380   23.2120 N.ar  119  HIS119     -0.2212
    130  N         42.6400   35.7940   21.8590 N.3   122  ASN122     -0.1225
    131  CA        42.4450   35.5600   20.4290 C.3   122  ASN122      0.1785
    132  C         43.7490   35.8780   19.6760 C.2   122  ASN122      0.2597
    133  O         43.8550   36.9480   19.0650 O.2   122  ASN122     -0.2718
    134  CB        41.3250   36.4520   19.9150 C.3   122  ASN122      0.1169
    135  CG        40.8600   36.0820   18.5050 C.2   122  ASN122      0.2627
    136  OD1       41.5250   35.3720   17.7720 O.2   122  ASN122     -0.2716
    137  ND2       39.6590   36.5170   18.1570 N.am  122  ASN122     -0.0877
    138  N         44.7590   35.0160   19.7640 N.am  123  ALA123     -0.1966
    139  CA        46.1270   35.4430   19.2530 C.3   123  ALA123      0.1728
    140  C         46.2100   35.6320   17.7220 C.2   123  ALA123      0.2616
    141  O         47.0070   36.4620   17.1840 O.2   123  ALA123     -0.2715
    142  CB        47.2400   34.4200   19.7920 C.3   123  ALA123      0.0334
    143  N         45.3980   34.8560   16.9870 N.am  124  ARG124     -0.1963
    144  CA        45.3390   35.0080   15.5810 C.3   124  ARG124      0.1729
    145  C         44.7870   36.4180   15.1200 C.2   124  ARG124      0.2616
    146  O         45.3680   37.0140   14.2040 O.2   124  ARG124     -0.2715
    147  CB        44.5670   33.8480   14.9340 C.3   124  ARG124      0.0348
    148  CG        44.1920   34.1890   13.5140 C.3   124  ARG124      0.0492
    149  CD        43.8090   32.9840   12.7180 C.3   124  ARG124      0.2205
    150  NE        43.2380   32.0750   13.6760 N.pl3 124  ARG124     -0.0865
    151  CZ        41.9570   31.9280   13.7400 C.cat 124  ARG124      0.5346
    152  NH1       41.3220   32.6150   12.8230 N.pl3 124  ARG124      0.1354
    153  NH2       41.3510   31.1170   14.5770 N.pl3 124  ARG124      0.1354
    154  N         43.6770   36.8920   15.7450 N.am  125  ALA125     -0.1977
    155  CA        43.1080   38.1890   15.4340 C.3   125  ALA125      0.1597
    156  C         44.1000   39.2120   15.8590 C.2   125  ALA125      0.2287
    157  O         44.3860   40.0760   15.0660 O.2   125  ALA125     -0.2864
    158  CB        41.6990   38.4780   16.1560 C.3   125  ALA125      0.0319
    159  N         47.4790   39.1270   16.1110 N.3   127  ALA127     -0.1231
    160  CA        48.5930   39.1280   15.1590 C.3   127  ALA127      0.1694
    161  C         48.2190   39.7360   13.8490 C.2   127  ALA127      0.2592
    162  O         49.0500   40.4290   13.2410 O.2   127  ALA127     -0.2718
    163  CB        49.1140   37.6880   14.8900 C.3   127  ALA127      0.0304
    164  N         47.0030   39.4640   13.3740 N.am  128  LEU128     -0.1966
    165  CA        46.5450   40.1170   12.1310 C.3   128  LEU128      0.1728
    166  C         46.3530   41.6180   12.3480 C.2   128  LEU128      0.2616
    167  O         46.7840   42.4280   11.5220 O.2   128  LEU128     -0.2715
    168  CB        45.2360   39.5030   11.5770 C.3   128  LEU128      0.0311
    169  CG        44.6330   40.3030   10.3850 C.3   128  LEU128      0.0022
    170  CD1       45.5970   40.2640    9.2360 C.3   128  LEU128      0.0001
    171  CD2       43.2340   39.9090    9.8960 C.3   128  LEU128      0.0001
    172  N         45.7160   42.0140   13.4350 N.am  129  TYR129     -0.1974
    173  CA        45.5810   43.4620   13.6820 C.3   129  TYR129      0.1639
    174  C         46.9220   44.1830   13.8170 C.2   129  TYR129      0.2290
    175  O         47.0880   45.2450   13.2890 O.2   129  TYR129     -0.2864
    176  CB        44.7320   43.7310   14.9280 C.3   129  TYR129      0.0560
    177  CG        43.3710   43.1630   14.8320 C.ar  129  TYR129     -0.0198
    178  CD1       42.7060   43.1020   13.5950 C.ar  129  TYR129     -0.0009
    179  CD2       42.7150   42.6320   15.9750 C.ar  129  TYR129     -0.0009
    180  CE1       41.4110   42.4670   13.4620 C.ar  129  TYR129      0.0417
    181  CE2       41.3970   42.0930   15.8890 C.ar  129  TYR129      0.0417
    182  CZ        40.7570   42.0100   14.6370 C.ar  129  TYR129      0.1957
    183  OH        39.4830   41.4730   14.5570 O.3   129  TYR129     -0.2866
    184  N         49.7740   43.2750   12.3380 N.3   131  LYS131     -0.1245
    185  CA        50.3520   43.2560   11.0310 C.3   131  LYS131      0.1561
    186  C         49.7420   44.3810   10.2190 C.2   131  LYS131      0.2260
    187  O         50.4380   45.0790    9.5400 O.2   131  LYS131     -0.2867
    188  CB        50.0460   41.9170   10.3670 C.3   131  LYS131      0.0271
    189  CG        50.5790   41.7930    9.0260 C.3   131  LYS131      0.0035
    190  CD        49.7480   40.9180    8.1400 C.3   131  LYS131      0.0206
    191  CE        49.4420   39.5420    8.7660 C.3   131  LYS131      0.1093
    192  NZ        48.8040   38.6680    7.6700 N.3   131  LYS131     -0.1314
@<TRIPOS>BOND
     1    88    87    1
     2    72    71    2
     3    75    76    1
     4    75    74    1
     5    87    89    1
     6    87    86    1
     7    81    80    2
     8    86    83    1
     9    83    82    1
    10    83    84    1
    11    76    77    1
    12    73    74    1
    13    73    70    1
    14    80    82   am
    15    80    79    1
    16    71    70    1
    17    71    78   am
    18    85    84    2
    19    79    78    1
    20    84    90   am
    21    70    69    1
    22    96    97    2
    23    96    95    1
    24    98    95    1
    25    95    94    1
    26    90    91    1
    27    69    63   am
    28    94    92   am
    29    92    93    2
    30    92    91    1
    31    64    63    2
    32    63    62    1
    33    48    46    1
    34    49    47    1
    35    53    52    2
    36    50    51    1
    37    47    46    1
    38   192   191    1
    39    52    51    1
    40    52    61   am
    41    51    54    1
    42    46    43    1
    43   190   191    1
    44   190   189    1
    45    62    61    1
    46    62    65    1
    47    41    40    2
    48    43    44    1
    49    43    42    1
    50    44    45    2
    51   189   188    1
    52    65    66    1
    53   170   169    1
    54    40    42   am
    55    40    39    1
    56    54    55    1
    57   187   186    2
    58    66    67    2
    59    66    68   am
    60   171   169    1
    61    55    56    1
    62   186   185    1
    63   188   185    1
    64   169   168    1
    65    38    39    1
    66    37    36    2
    67   185   184    1
    68    56    57    1
    69     7     5    1
    70   167   166    2
    71    57    58    2
    72   168   165    1
    73    36    35    1
    74   165   166    1
    75   165   164    1
    76   166   172   am
    77    60    58    1
    78    58    59    1
    79   149   148    1
    80   149   150    1
    81     1     2    1
    82     5     2    1
    83     5     6    1
    84   152   151    1
    85    34    35    1
    86   162   161    2
    87   175   174    2
    88   164   161   am
    89   172   173    1
    90   180   178   ar
    91   180   182   ar
    92   148   147    1
    93     2     3    1
    94   178   177   ar
    95   150   151    2
    96   173   174    1
    97   173   176    1
    98   151   153    1
    99   161   160    1
   100   146   145    2
   101   183   182    1
   102   182   181   ar
   103   177   176    1
   104   177   179   ar
   105   163   160    1
   106   147   144    1
   107     3     4    2
   108   157   156    2
   109   145   144    1
   110   145   154   am
   111   106   104    1
   112   160   159    1
   113    26    25    1
   114   155   154    1
   115   155   156    1
   116   155   158    1
   117   144   143    1
   118    27    25    1
   119   181   179   ar
   120    25    24    1
   121   104   103    1
   122   104   105    1
   123    16    14   ar
   124    16    18   ar
   125   103   100    1
   126    19    18    1
   127    14    13   ar
   128   143   140   am
   129    18    17   ar
   130   141   140    2
   131    13    12    1
   132    13    15   ar
   133    99   100    1
   134    24    21    1
   135   140   139    1
   136    12     9    1
   137   136   135    2
   138    17    15   ar
   139   100   101    1
   140   137   135   am
   141   135   134    1
   142    21    20    1
   143    21    22    1
   144    20    10   am
   145   133   132    2
   146   101   107   am
   147   101   102    2
   148     9    10    1
   149     9     8    1
   150    10    11    2
   151   139   138    1
   152   139   142    1
   153   119   117    1
   154   107   108    1
   155   132   138   am
   156   132   131    1
   157   110   109    2
   158   117   118    1
   159   117   114    1
   160   134   131    1
   161    22    28   am
   162    22    23    2
   163    28    29    1
   164   131   130    1
   165   109   108    1
   166   109   113   am
   167    33    32    1
   168   114   113    1
   169   114   115    1
   170   108   111    1
   171    29    30    1
   172    29    32    1
   173    30    31    2
   174   111   112    1
   175   115   120   am
   176   115   116    2
   177   120   121    1
   178   123   122    2
   179   128   126   ar
   180   128   129   ar
   181   126   125   ar
   182   129   127   ar
   183   125   124    1
   184   125   127   ar
   185   124   121    1
   186   121   122    1
