@<TRIPOS>MOLECULE
tmp/2gejA00.pdb
 210 200 0 0 0
SMALL
GASTEIGER

@<TRIPOS>ATOM
      1  N         -2.7010   51.6370   26.1870 N.3    14  PRO14      -0.2102
      2  CA        -1.9160   50.4150   26.1410 C.3    14  PRO14       0.1504
      3  C         -2.8600   49.2100   26.1810 C.2    14  PRO14       0.2576
      4  O         -3.9680   49.3240   26.7160 O.2    14  PRO14      -0.2718
      5  CB        -1.0560   50.5140   27.4240 C.3    14  PRO14       0.0282
      6  CG        -1.8220   51.4180   28.3230 C.3    14  PRO14       0.0208
      7  CD        -2.4350   52.4100   27.4170 C.3    14  PRO14       0.0893
      8  N         -2.4620   48.0720   25.6050 N.am   15  GLY15      -0.1943
      9  CA        -3.3350   46.8950   25.6190 C.3    15  GLY15       0.2014
     10  C         -2.6690   45.7690   24.9060 C.2    15  GLY15       0.2639
     11  O         -1.7470   46.0140   24.1220 O.2    15  GLY15      -0.2714
     12  N         -3.0990   44.5380   25.1650 N.am   16  GLY16      -0.1939
     13  CA        -2.4410   43.3960   24.5920 C.3    16  GLY16       0.2014
     14  C         -2.4570   43.3190   23.0580 C.2    16  GLY16       0.2638
     15  O         -1.4390   42.9440   22.4300 O.2    16  GLY16      -0.2714
     16  N         -3.5800   43.6550   22.4330 N.am   17  VAL17      -0.1977
     17  CA        -3.6260   43.5540   21.0010 C.3    17  VAL17       0.1596
     18  C         -2.7590   44.6600   20.3620 C.2    17  VAL17       0.2287
     19  O         -1.9490   44.3770   19.4410 O.2    17  VAL17      -0.2864
     20  CB        -5.0900   43.5400   20.4930 C.3    17  VAL17       0.0276
     21  CG1       -5.1760   43.6450   18.9610 C.3    17  VAL17       0.0022
     22  CG2       -5.7880   42.2910   21.0050 C.3    17  VAL17       0.0022
     23  N         -0.2050   46.2500   21.5440 N.3    19  SER19      -0.1217
     24  CA         1.1920   46.0920   21.8310 C.3    19  SER19       0.1889
     25  C          1.7500   44.9530   20.9480 C.2    19  SER19       0.2288
     26  O          2.8350   45.0540   20.3700 O.2    19  SER19      -0.2866
     27  CB         1.3390   45.8930   23.3200 C.3    19  SER19       0.2089
     28  OG         2.6410   45.5620   23.6660 O.3    19  SER19      -0.2183
     29  N          4.4910   45.6670   17.9130 N.3    23  GLN23      -0.1245
     30  CA         5.7670   45.0060   18.1600 C.3    23  GLN23       0.1566
     31  C          6.0190   44.0880   17.0070 C.2    23  GLN23       0.2260
     32  O          7.1130   44.0400   16.4990 O.2    23  GLN23      -0.2867
     33  CB         5.7760   44.2580   19.4740 C.3    23  GLN23       0.0367
     34  CG         5.9960   45.1520   20.6800 C.3    23  GLN23       0.0905
     35  CD         6.0880   44.3220   21.9360 C.2    23  GLN23       0.2608
     36  OE1        7.1800   43.9980   22.3750 O.2    23  GLN23      -0.2717
     37  NE2        4.9690   43.9090   22.4820 N.am   23  GLN23      -0.0878
     38  N         -7.0710   36.9820   19.6700 N.3   106  HIS106     -0.1226
     39  CA        -6.5720   37.2400   21.0040 C.3   106  HIS106      0.1752
     40  C         -7.4640   36.7790   22.1330 C.2   106  HIS106      0.2596
     41  O         -7.0060   36.0210   22.9680 O.2   106  HIS106     -0.2718
     42  CB        -6.2170   38.6930   21.1270 C.3   106  HIS106      0.0759
     43  CG        -5.1850   39.0920   20.1280 C.ar  106  HIS106      0.0818
     44  ND1       -3.8320   38.9760   20.3830 N.ar  106  HIS106     -0.2268
     45  CD2       -5.3000   39.4890   18.8310 C.ar  106  HIS106      0.1154
     46  CE1       -3.1570   39.3780   19.3230 C.ar  106  HIS106      0.1986
     47  NE2       -4.0170   39.6820   18.3630 N.ar  106  HIS106     -0.2212
     48  N         -8.7220   37.1860   22.1610 N.am  107  THR107     -0.1953
     49  CA        -9.5930   36.7770   23.2480 C.3   107  THR107      0.1897
     50  C        -10.4430   35.5430   22.9000 C.2   107  THR107      0.2313
     51  O        -10.6080   35.1760   21.7190 O.2   107  THR107     -0.2863
     52  CB       -10.5440   37.9020   23.6610 C.3   107  THR107      0.1794
     53  OG1      -11.4680   38.1380   22.5930 O.3   107  THR107     -0.2208
     54  CG2       -9.7630   39.2180   24.0140 C.3   107  THR107      0.0378
     55  N          1.4990   34.9840   21.8450 N.3   156  ASN156     -0.1240
     56  CA         1.9900   36.3180   21.5300 C.3   156  ASN156      0.1653
     57  C          3.4610   36.5220   22.0330 C.2   156  ASN156      0.2266
     58  O          3.8670   35.9490   23.0430 O.2   156  ASN156     -0.2867
     59  CB         1.0540   37.3440   22.1380 C.3   156  ASN156      0.1155
     60  CG        -0.3670   37.3710   21.4800 C.2   156  ASN156      0.2627
     61  OD1       -1.2950   37.8710   22.0790 O.2   156  ASN156     -0.2716
     62  ND2       -0.5020   36.8940   20.2590 N.am  156  ASN156     -0.0877
     63  N          0.2970   45.2720   37.8280 N.3   182  LEU182     -0.1231
     64  CA         0.2610   45.9700   36.5770 C.3   182  LEU182      0.1693
     65  C         -1.1060   45.8310   35.8850 C.2   182  LEU182      0.2593
     66  O         -1.4740   44.7620   35.4640 O.2   182  LEU182     -0.2718
     67  CB         1.4470   45.4840   35.7320 C.3   182  LEU182      0.0284
     68  CG         1.7100   45.8150   34.2540 C.3   182  LEU182      0.0019
     69  CD1        0.7590   46.7920   33.7070 C.3   182  LEU182      0.0001
     70  CD2        3.1560   46.2990   34.0450 C.3   182  LEU182      0.0001
     71  N         -1.8710   46.9070   35.7710 N.am  183  GLY183     -0.1942
     72  CA        -3.0840   46.8250   34.9900 C.3   183  GLY183      0.2014
     73  C         -4.0350   47.9510   35.2510 C.2   183  GLY183      0.2638
     74  O         -3.7460   48.8630   36.0360 O.2   183  GLY183     -0.2714
     75  N         -5.1810   47.8740   34.5740 N.am  184  ARG184     -0.1973
     76  CA        -6.2770   48.7980   34.7500 C.3   184  ARG184      0.1640
     77  C         -6.9240   48.3770   36.0480 C.2   184  ARG184      0.2290
     78  O         -7.9420   47.6780   36.0690 O.2   184  ARG184     -0.2864
     79  CB        -7.2470   48.7080   33.5740 C.3   184  ARG184      0.0589
     80  CG        -7.0470   49.7720   32.4560 C.2   184  ARG184      0.0162
     81  CD        -7.4930   49.3410   30.9570 C.2   184  ARG184      0.1886
     82  NE        -8.0300   47.9630   30.7560 N.pl3 184  ARG184     -0.0578
     83  CZ        -7.4570   47.0180   29.9850 C.cat 184  ARG184      0.5393
     84  NH1       -6.3200   47.2780   29.3130 N.pl3 184  ARG184      0.1358
     85  NH2       -8.0210   45.8160   29.8550 N.pl3 184  ARG184      0.1358
     86  N         -9.2370   42.4800   36.9230 N.3   190  LYS190     -0.1245
     87  CA        -7.7970   42.6260   37.0920 C.3   190  LYS190      0.1561
     88  C         -7.3150   42.2960   38.5190 C.2   190  LYS190      0.2260
     89  O         -6.1000   42.1730   38.7530 O.2   190  LYS190     -0.2867
     90  CB        -7.3160   44.0100   36.6280 C.3   190  LYS190      0.0271
     91  CG        -7.6370   44.3130   35.1670 C.3   190  LYS190      0.0035
     92  CD        -6.8080   43.4540   34.2190 C.3   190  LYS190      0.0206
     93  CE        -7.0490   43.8610   32.7700 C.3   190  LYS190      0.1093
     94  NZ        -6.4450   42.8600   31.8020 N.3   190  LYS190     -0.1314
     95  N          1.5940   49.8120   38.3880 N.3   214  VAL214     -0.1231
     96  CA         1.6460   50.3750   37.0250 C.3   214  VAL214      0.1692
     97  C          0.2600   50.3030   36.4170 C.2   214  VAL214      0.2592
     98  O         -0.4200   49.2600   36.5180 O.2   214  VAL214     -0.2718
     99  CB         2.6420   49.5870   36.0800 C.3   214  VAL214      0.0266
    100  CG1        2.6630   50.1740   34.6990 C.3   214  VAL214      0.0020
    101  CG2        4.0310   49.6120   36.6280 C.3   214  VAL214      0.0020
    102  N         -0.1460   51.4000   35.7750 N.am  215  GLY215     -0.1957
    103  CA        -1.4020   51.4720   35.0330 C.3   215  GLY215      0.1869
    104  C         -2.3030   52.6260   35.4120 C.2   215  GLY215      0.2309
    105  O         -2.1240   53.2660   36.4660 O.2   215  GLY215     -0.2863
    106  N          0.3080   55.4760   34.0670 N.3   238  GLN238     -0.1231
    107  CA         0.3460   54.7460   32.8280 C.3   238  GLN238      0.1698
    108  C          1.6810   55.0490   32.1660 C.2   238  GLN238      0.2592
    109  O          1.7520   55.8730   31.2590 O.2   238  GLN238     -0.2718
    110  CB        -0.7900   55.2740   31.9290 C.3   238  GLN238      0.0381
    111  CG        -0.9550   54.5050   30.6240 C.3   238  GLN238      0.0905
    112  CD        -2.1710   54.9440   29.8210 C.2   238  GLN238      0.2608
    113  OE1       -3.2600   54.3200   29.9040 O.2   238  GLN238     -0.2717
    114  NE2       -2.0050   56.0140   29.0340 N.am  238  GLN238     -0.0878
    115  N          2.7310   54.3690   32.6080 N.am  239  VAL239     -0.1966
    116  CA         4.0980   54.6630   32.1630 C.3   239  VAL239      0.1727
    117  C          4.4300   54.0470   30.7930 C.2   239  VAL239      0.2616
    118  O          3.7770   53.1340   30.3690 O.2   239  VAL239     -0.2715
    119  CB         5.1430   54.1400   33.1930 C.3   239  VAL239      0.0290
    120  CG1        5.0300   54.8590   34.5350 C.3   239  VAL239      0.0023
    121  CG2        5.0120   52.6410   33.3630 C.3   239  VAL239      0.0023
    122  N          5.4910   54.5350   30.1460 N.am  240  ASP240     -0.1957
    123  CA         5.9730   54.0150   28.8780 C.3   240  ASP240      0.1840
    124  C          6.6430   52.6700   29.0510 C.2   240  ASP240      0.2622
    125  O          6.9420   52.2510   30.1710 O.2   240  ASP240     -0.2715
    126  CB         6.9160   55.0210   28.1730 C.3   240  ASP240      0.1450
    127  CG         8.2990   55.1960   28.8710 C.2   240  ASP240      0.3671
    128  OD1        8.7930   54.2950   29.5910 O.co2 240  ASP240     -0.2456
    129  OD2        8.9160   56.2680   28.6610 O.co2 240  ASP240     -0.2456
    130  N          6.8840   51.9860   27.9340 N.am  241  ASP241     -0.1971
    131  CA         7.4060   50.6190   27.9940 C.3   241  ASP241      0.1709
    132  C          8.7830   50.5280   28.5980 C.2   241  ASP241      0.2293
    133  O          9.0800   49.5460   29.3020 O.2   241  ASP241     -0.2864
    134  CB         7.3570   49.9360   26.6250 C.3   241  ASP241      0.1436
    135  CG         5.9190   49.4810   26.2220 C.2   241  ASP241      0.3671
    136  OD1        4.9870   49.3730   27.0690 O.co2 241  ASP241     -0.2456
    137  OD2        5.7280   49.1970   25.0210 O.co2 241  ASP241     -0.2456
    138  N          8.3170   50.6090   32.3020 N.3   244  LYS244     -0.1245
    139  CA         7.5940   49.4220   32.7740 C.3   244  LYS244      0.1561
    140  C          8.5310   48.2310   32.8890 C.2   244  LYS244      0.2260
    141  O          8.5000   47.4940   33.8730 O.2   244  LYS244     -0.2867
    142  CB         6.4110   49.1060   31.8300 C.3   244  LYS244      0.0271
    143  CG         5.9700   47.6680   31.8070 C.3   244  LYS244      0.0035
    144  CD         4.9710   47.5270   30.6910 C.3   244  LYS244      0.0206
    145  CE         5.5460   46.8570   29.4570 C.3   244  LYS244      0.1093
    146  NZ         4.6660   47.0310   28.2880 N.3   244  LYS244     -0.1314
    147  N         -5.6140   38.3090   38.8520 N.3   258  HIS258     -0.1241
    148  CA        -6.7920   38.5390   38.0150 C.3   258  HIS258      0.1621
    149  C         -7.9170   37.5560   38.3730 C.2   258  HIS258      0.2264
    150  O         -7.6720   36.5110   38.9710 O.2   258  HIS258     -0.2867
    151  CB        -6.4430   38.4520   36.5170 C.3   258  HIS258      0.0745
    152  CG        -5.3260   39.3590   36.0800 C.ar  258  HIS258      0.0817
    153  ND1       -4.0660   39.3200   36.6360 N.ar  258  HIS258     -0.2268
    154  CD2       -5.2630   40.2780   35.0870 C.ar  258  HIS258      0.1154
    155  CE1       -3.2950   40.2190   36.0440 C.ar  258  HIS258      0.1986
    156  NE2       -3.9950   40.8040   35.0940 N.ar  258  HIS258     -0.2212
    157  N        -11.3610   36.9240   32.5130 N.3   261  GLY261     -0.1210
    158  CA       -11.1730   37.7580   31.3280 C.3   261  GLY261      0.1956
    159  C         -9.7400   37.8010   30.8120 C.2   261  GLY261      0.2612
    160  O         -9.2910   38.8090   30.2520 O.2   261  GLY261     -0.2717
    161  N         -8.9990   36.7130   30.9980 N.am  262  GLU262     -0.1965
    162  CA        -7.6210   36.6920   30.5170 C.3   262  GLU262      0.1733
    163  C         -7.3770   35.4590   29.6710 C.2   262  GLU262      0.2617
    164  O         -7.4580   34.3620   30.1810 O.2   262  GLU262     -0.2715
    165  CB        -6.6370   36.7700   31.6850 C.3   262  GLU262      0.0429
    166  CG        -6.7210   38.0780   32.4510 C.3   262  GLU262      0.1163
    167  CD        -6.3120   39.3270   31.6450 C.2   262  GLU262      0.3649
    168  OE1       -5.6800   39.2040   30.5380 O.co2 262  GLU262     -0.2457
    169  OE2       -6.6220   40.4490   32.1510 O.co2 262  GLU262     -0.2457
    170  N         -7.0880   35.6510   28.3800 N.am  263  SER263     -0.1936
    171  CA        -6.9210   34.5210   27.4470 C.3   263  SER263      0.2055
    172  C         -5.4570   34.0620   27.3430 C.2   263  SER263      0.2643
    173  O         -5.1770   32.9570   26.9270 O.2   263  SER263     -0.2714
    174  CB        -7.5200   34.8680   26.0830 C.3   263  SER263      0.2130
    175  OG        -8.9710   34.9730   26.1390 O.3   263  SER263     -0.2179
    176  N         -4.5350   34.8970   27.8120 N.am  264  PHE264     -0.1973
    177  CA        -3.1220   34.7050   27.5980 C.3   264  PHE264      0.1639
    178  C         -2.3540   35.4240   28.6850 C.2   264  PHE264      0.2290
    179  O         -2.6870   36.5380   29.1370 O.2   264  PHE264     -0.2864
    180  CB        -2.7000   35.2960   26.2360 C.3   264  PHE264      0.0560
    181  CG        -1.3050   34.9330   25.8830 C.ar  264  PHE264     -0.0200
    182  CD1       -1.0160   33.6560   25.3870 C.ar  264  PHE264     -0.0042
    183  CD2       -0.2730   35.8060   26.1440 C.ar  264  PHE264     -0.0042
    184  CE1        0.2650   33.2790   25.1320 C.ar  264  PHE264     -0.0003
    185  CE2        1.0350   35.4410   25.8690 C.ar  264  PHE264     -0.0003
    186  CZ         1.2940   34.1690   25.3630 C.ar  264  PHE264     -0.0000
    187  N          0.1080   37.6650   29.1840 N.3   266  ILE266     -0.1231
    188  CA         1.3670   38.2750   28.6990 C.3   266  ILE266      0.1692
    189  C          2.1640   39.0330   29.7310 C.2   266  ILE266      0.2591
    190  O          3.3750   38.8740   29.7580 O.2   266  ILE266     -0.2718
    191  CB         1.3280   39.0370   27.3490 C.3   266  ILE266      0.0266
    192  CG1        2.6880   38.8380   26.6280 C.3   266  ILE266      0.0019
    193  CG2        1.0630   40.4670   27.5640 C.3   266  ILE266      0.0020
    194  CD1        2.8730   39.5740   25.3210 C.3   266  ILE266      0.0001
    195  N          1.5140   39.8050   30.5980 N.am  267  VAL267     -0.1980
    196  CA         2.2800   40.5020   31.6400 C.3   267  VAL267      0.1595
    197  C          3.1260   39.4780   32.4170 C.2   267  VAL267      0.2287
    198  O          4.2450   39.7890   32.8550 O.2   267  VAL267     -0.2864
    199  CB         1.4180   41.2810   32.6390 C.3   267  VAL267      0.0276
    200  CG1        2.3320   42.1420   33.4930 C.3   267  VAL267      0.0022
    201  CG2        0.3850   42.1870   31.9170 C.3   267  VAL267      0.0022
    202  N          6.0820   38.9820   30.6340 N.3   270  GLU270     -0.1245
    203  CA         6.9820   40.0960   30.8000 C.3   270  GLU270      0.1567
    204  C          7.7760   39.9830   32.1060 C.2   270  GLU270      0.2260
    205  O          8.9480   40.2680   32.0940 O.2   270  GLU270     -0.2867
    206  CB         6.2540   41.4470   30.7280 C.3   270  GLU270      0.0388
    207  CG         5.7250   41.8190   29.3630 C.3   270  GLU270      0.1160
    208  CD         4.6730   42.9450   29.4040 C.2   270  GLU270      0.3649
    209  OE1        4.1050   43.2390   30.5010 O.co2 270  GLU270     -0.2457
    210  OE2        4.4200   43.5360   28.3230 O.co2 270  GLU270     -0.2457
@<TRIPOS>BOND
     1    32    31    2
     2    31    30    1
     3    29    30    1
     4    30    33    1
     5    47    45   ar
     6    47    46   ar
     7    45    43   ar
     8    21    20    1
     9    46    44   ar
    10    19    18    2
    11    33    34    1
    12    38    39    1
    13    43    44   ar
    14    43    42    1
    15    62    60   am
    16    18    17    1
    17    26    25    2
    18    20    17    1
    19    20    22    1
    20    34    35    1
    21    25    24    1
    22    17    16    1
    23    39    42    1
    24    39    40    1
    25    60    61    2
    26    60    59    1
    27    56    55    1
    28    56    57    1
    29    56    59    1
    30    23    24    1
    31    51    50    2
    32    24    27    1
    33    35    36    2
    34    35    37   am
    35    57    58    2
    36    40    48   am
    37    40    41    2
    38    48    49    1
    39    15    14    2
    40    16    14   am
    41    53    52    1
    42    50    49    1
    43    14    13    1
    44    49    52    1
    45    27    28    1
    46    52    54    1
    47    11    10    2
    48    13    12    1
    49    10    12   am
    50    10     9    1
    51   137   135   ar
    52   184   186   ar
    53   184   182   ar
    54   194   192    1
    55   186   185   ar
    56   182   181   ar
    57     8     9    1
    58     8     3   am
    59   185   183   ar
    60   181   183   ar
    61   181   180    1
    62   174   175    1
    63   174   171    1
    64     2     3    1
    65     2     1    1
    66     2     5    1
    67     3     4    2
    68     1     7    1
    69   135   134    1
    70   135   136   ar
    71   180   177    1
    72   134   131    1
    73   192   191    1
    74   173   172    2
    75   172   171    1
    76   172   176   am
    77   191   193    1
    78   191   188    1
    79     7     6    1
    80     5     6    1
    81   171   170    1
    82   177   176    1
    83   177   178    1
    84   130   131    1
    85   130   124   am
    86   131   132    1
    87   126   127    1
    88   126   123    1
    89   146   145    1
    90   210   208   ar
    91   170   163   am
    92   132   133    2
    93   129   127   ar
    94   178   179    2
    95   188   187    1
    96   188   189    1
    97   127   128   ar
    98   123   124    1
    99   123   122    1
   100   114   112   am
   101   124   125    2
   102    84    83    1
   103   207   208    1
   104   207   206    1
   105   208   209   ar
   106   145   144    1
   107   163   164    2
   108   163   162    1
   109   189   190    2
   110   189   195   am
   111   112   113    2
   112   112   111    1
   113    85    83    1
   114    83    82    2
   115   122   117   am
   116   160   159    2
   117   118   117    2
   118   162   161    1
   119   162   165    1
   120   168   167   ar
   121   195   196    1
   122   111   110    1
   123   202   203    1
   124   144   143    1
   125   206   203    1
   126    82    81    1
   127   117   116    1
   128   203   204    1
   129   159   161   am
   130   159   158    1
   131    81    80    2
   132   109   108    2
   133   158   157    1
   134   196   197    1
   135   196   199    1
   136   167   169   ar
   137   167   166    1
   138   165   166    1
   139    94    93    1
   140   143   142    1
   141   142   139    1
   142   201   199    1
   143   110   107    1
   144   205   204    2
   145   116   115    1
   146   116   119    1
   147   108   115   am
   148   108   107    1
   149   138   139    1
   150   197   198    2
   151    80    79    1
   152   199   200    1
   153    93    92    1
   154   139   140    1
   155   107   106    1
   156   140   141    2
   157   119   121    1
   158   119   120    1
   159    79    76    1
   160    69    68    1
   161    70    68    1
   162    92    91    1
   163    68    67    1
   164    75    76    1
   165    75    73   am
   166   100    99    1
   167    76    77    1
   168    72    73    1
   169    72    71    1
   170   103   104    1
   171   103   102    1
   172   154   156   ar
   173   154   152   ar
   174   156   155   ar
   175    91    90    1
   176    73    74    2
   177   104   105    2
   178    66    65    2
   179    67    64    1
   180    71    65   am
   181   102    97   am
   182    65    64    1
   183   155   153   ar
   184    77    78    2
   185   152   151    1
   186   152   153   ar
   187    99   101    1
   188    99    96    1
   189    97    98    2
   190    97    96    1
   191   151   148    1
   192    64    63    1
   193    90    87    1
   194    86    87    1
   195    96    95    1
   196    87    88    1
   197   148   149    1
   198   148   147    1
   199   149   150    2
   200    88    89    2
