@<TRIPOS>MOLECULE
tmp/2gekA00.pdb
 148 139 0 0 0
SMALL
GASTEIGER

@<TRIPOS>ATOM
      1  N         -2.2500   51.1670   26.2690 N.3    14  PRO14      -0.2102
      2  CA        -1.6070   49.8600   26.1580 C.3    14  PRO14       0.1504
      3  C         -2.5720   48.6690   26.1400 C.2    14  PRO14       0.2576
      4  O         -3.6540   48.7320   26.7130 O.2    14  PRO14      -0.2718
      5  CB        -0.7220   49.8080   27.4110 C.3    14  PRO14       0.0282
      6  CG        -1.3850   50.6100   28.3470 C.3    14  PRO14       0.0208
      7  CD        -1.9310   51.7730   27.5750 C.3    14  PRO14       0.0893
      8  N         -2.1570   47.5760   25.4990 N.am   15  GLY15      -0.1943
      9  CA        -2.9560   46.3860   25.5150 C.3    15  GLY15       0.2014
     10  C         -2.2100   45.2580   24.9210 C.2    15  GLY15       0.2639
     11  O         -1.1790   45.4590   24.3140 O.2    15  GLY15      -0.2714
     12  N         -2.7230   44.0540   25.0920 N.am   16  GLY16      -0.1954
     13  CA        -2.0270   42.9040   24.5690 C.3    16  GLY16       0.1869
     14  C         -2.0160   42.8260   23.0580 C.2    16  GLY16       0.2309
     15  O         -0.9870   42.4610   22.4540 O.2    16  GLY16      -0.2863
     16  N          0.1660   45.9380   21.3730 N.3    19  SER19      -0.1217
     17  CA         1.5840   45.7220   21.5840 C.3    19  SER19       0.1889
     18  C          2.1320   44.5100   20.8110 C.2    19  SER19       0.2288
     19  O          3.2880   44.5200   20.3580 O.2    19  SER19      -0.2866
     20  CB         1.8060   45.5920   23.0740 C.3    19  SER19       0.2089
     21  OG         2.9480   44.8260   23.3000 O.3    19  SER19      -0.2183
     22  N          0.6900   44.7050   37.9200 N.3   182  LEU182     -0.1231
     23  CA         0.5620   45.4520   36.6800 C.3   182  LEU182      0.1693
     24  C         -0.8150   45.2880   36.0270 C.2   182  LEU182      0.2593
     25  O         -1.3120   44.1840   35.8620 O.2   182  LEU182     -0.2718
     26  CB         1.7840   45.2110   35.7800 C.3   182  LEU182      0.0284
     27  CG         2.0130   45.3580   34.2640 C.3   182  LEU182      0.0019
     28  CD1        0.8810   45.7910   33.3960 C.3   182  LEU182      0.0001
     29  CD2        3.3290   46.0570   33.9350 C.3   182  LEU182      0.0001
     30  N         -1.4730   46.4110   35.7600 N.am  183  GLY183     -0.1942
     31  CA        -2.7550   46.4010   35.0620 C.3   183  GLY183      0.2014
     32  C         -3.7540   47.4450   35.5520 C.2   183  GLY183      0.2638
     33  O         -3.4870   48.2090   36.4930 O.2   183  GLY183     -0.2714
     34  N         -4.9120   47.4640   34.9010 N.am  184  ARG184     -0.1977
     35  CA        -6.0110   48.3370   35.2420 C.3   184  ARG184      0.1597
     36  C         -6.6530   47.8160   36.5270 C.2   184  ARG184      0.2287
     37  O         -7.6510   47.0930   36.5060 O.2   184  ARG184     -0.2864
     38  CB        -7.0380   48.4380   34.0620 C.3   184  ARG184      0.0334
     39  CG        -6.4430   49.0840   32.8140 C.3   184  ARG184      0.0492
     40  CD        -5.9830   50.5270   32.9950 C.3   184  ARG184      0.2205
     41  NE        -7.0870   51.3500   33.5120 N.pl3 184  ARG184     -0.0865
     42  CZ        -8.0120   51.9020   32.7750 C.cat 184  ARG184      0.5346
     43  NH1       -7.9830   51.8180   31.4490 N.pl3 184  ARG184      0.1354
     44  NH2       -9.0100   52.5680   33.3110 N.pl3 184  ARG184      0.1354
     45  N         -9.0710   41.8720   37.3800 N.3   190  LYS190     -0.1245
     46  CA        -7.6080   41.9700   37.5480 C.3   190  LYS190      0.1561
     47  C         -7.1260   41.6550   38.9640 C.2   190  LYS190      0.2260
     48  O         -5.9080   41.6290   39.2130 O.2   190  LYS190     -0.2867
     49  CB        -7.0750   43.3380   37.1040 C.3   190  LYS190      0.0271
     50  CG        -7.4090   43.6880   35.6710 C.3   190  LYS190      0.0035
     51  CD        -6.4390   43.0280   34.6960 C.3   190  LYS190      0.0206
     52  CE        -7.0890   42.9940   33.3120 C.3   190  LYS190      0.1093
     53  NZ        -6.1860   42.6320   32.1810 N.3   190  LYS190     -0.1314
     54  N          1.7700   49.2220   38.5410 N.3   214  VAL214     -0.1231
     55  CA         1.8140   49.7960   37.2110 C.3   214  VAL214      0.1692
     56  C          0.4260   49.7240   36.6230 C.2   214  VAL214      0.2592
     57  O         -0.2320   48.6900   36.7410 O.2   214  VAL214     -0.2718
     58  CB         2.8500   49.1280   36.2880 C.3   214  VAL214      0.0266
     59  CG1        2.6890   49.6680   34.8490 C.3   214  VAL214      0.0020
     60  CG2        4.2800   49.4070   36.7780 C.3   214  VAL214      0.0020
     61  N         -0.0220   50.8120   35.9900 N.am  215  GLY215     -0.1957
     62  CA        -1.3270   50.8400   35.3120 C.3   215  GLY215      0.1869
     63  C         -2.1490   52.0500   35.7000 C.2   215  GLY215      0.2309
     64  O         -1.9010   52.6590   36.7250 O.2   215  GLY215     -0.2863
     65  N          0.6370   55.1990   34.1970 N.3   238  GLN238     -0.1231
     66  CA         0.7310   54.4510   32.9680 C.3   238  GLN238      0.1698
     67  C          2.0840   54.8000   32.3590 C.2   238  GLN238      0.2592
     68  O          2.1830   55.6670   31.4950 O.2   238  GLN238     -0.2718
     69  CB        -0.4180   54.8280   32.0260 C.3   238  GLN238      0.0381
     70  CG        -0.5320   53.9750   30.7770 C.3   238  GLN238      0.0905
     71  CD        -1.6850   54.4220   29.9000 C.2   238  GLN238      0.2608
     72  OE1       -2.7850   53.8710   29.9790 O.2   238  GLN238     -0.2717
     73  NE2       -1.4500   55.4420   29.0810 N.am  238  GLN238     -0.0878
     74  N          3.1170   54.1130   32.8320 N.am  239  VAL239     -0.1966
     75  CA         4.5020   54.3740   32.4420 C.3   239  VAL239      0.1727
     76  C          4.7810   53.8850   31.0370 C.2   239  VAL239      0.2616
     77  O          3.9550   53.1820   30.4680 O.2   239  VAL239     -0.2715
     78  CB         5.5240   53.6930   33.4190 C.3   239  VAL239      0.0290
     79  CG1        5.7210   54.5360   34.7030 C.3   239  VAL239      0.0023
     80  CG2        5.1030   52.2770   33.7120 C.3   239  VAL239      0.0023
     81  N          5.9460   54.2340   30.4920 N.am  240  ASP240     -0.1957
     82  CA         6.3400   53.7500   29.1840 C.3   240  ASP240      0.1840
     83  C          6.8980   52.3540   29.2730 C.2   240  ASP240      0.2622
     84  O          7.0180   51.7760   30.3710 O.2   240  ASP240     -0.2715
     85  CB         7.3060   54.7010   28.4690 C.3   240  ASP240      0.1450
     86  CG         8.6120   54.9230   29.2220 C.2   240  ASP240      0.3671
     87  OD1        8.6690   54.7240   30.4610 O.co2 240  ASP240     -0.2456
     88  OD2        9.5900   55.3400   28.5560 O.co2 240  ASP240     -0.2456
     89  N          7.1920   51.7760   28.1120 N.am  241  ASP241     -0.1971
     90  CA         7.6070   50.3760   28.0710 C.3   241  ASP241      0.1709
     91  C          8.9570   50.1110   28.7220 C.2   241  ASP241      0.2293
     92  O          9.0970   49.1380   29.4830 O.2   241  ASP241     -0.2864
     93  CB         7.5330   49.8340   26.6520 C.3   241  ASP241      0.1436
     94  CG         6.1280   49.2730   26.3130 C.2   241  ASP241      0.3671
     95  OD1        5.2290   49.2430   27.2120 O.co2 241  ASP241     -0.2456
     96  OD2        5.9360   48.8590   25.1470 O.co2 241  ASP241     -0.2456
     97  N          8.6320   50.1690   32.3340 N.3   244  LYS244     -0.1245
     98  CA         7.8630   48.9910   32.7190 C.3   244  LYS244      0.1561
     99  C          8.8100   47.7930   32.8410 C.2   244  LYS244      0.2260
    100  O          8.7440   47.0380   33.8000 O.2   244  LYS244     -0.2867
    101  CB         6.7620   48.6990   31.6970 C.3   244  LYS244      0.0271
    102  CG         6.2430   47.2430   31.8230 C.3   244  LYS244      0.0035
    103  CD         5.3320   46.8430   30.6940 C.3   244  LYS244      0.0206
    104  CE         6.1270   46.3920   29.4690 C.3   244  LYS244      0.1093
    105  NZ         5.2000   46.0890   28.3660 N.3   244  LYS244     -0.1314
    106  N         -5.2950   37.7200   39.1250 N.3   258  HIS258     -0.1241
    107  CA        -6.4520   37.9000   38.2360 C.3   258  HIS258      0.1621
    108  C         -7.5930   36.9470   38.5790 C.2   258  HIS258      0.2264
    109  O         -7.3510   35.7990   38.9910 O.2   258  HIS258     -0.2867
    110  CB        -6.0510   37.6910   36.7740 C.3   258  HIS258      0.0745
    111  CG        -5.0680   38.6960   36.2490 C.ar  258  HIS258      0.0817
    112  ND1       -3.8300   38.9050   36.8190 N.ar  258  HIS258     -0.2268
    113  CD2       -5.1220   39.5110   35.1720 C.ar  258  HIS258      0.1154
    114  CE1       -3.1760   39.8310   36.1410 C.ar  258  HIS258      0.1986
    115  NE2       -3.9350   40.2080   35.1280 N.ar  258  HIS258     -0.2212
    116  N         -8.5980   36.1590   31.2050 N.3   262  GLU262     -0.1245
    117  CA        -7.2590   36.0720   30.5820 C.3   262  GLU262      0.1567
    118  C         -7.1330   34.8580   29.6560 C.2   262  GLU262      0.2260
    119  O         -7.4520   33.7270   30.0720 O.2   262  GLU262     -0.2867
    120  CB        -6.1600   35.9900   31.6490 C.3   262  GLU262      0.0388
    121  CG        -6.0120   37.2500   32.5170 C.3   262  GLU262      0.1160
    122  CD        -5.7430   38.5380   31.7010 C.2   262  GLU262      0.3649
    123  OE1       -4.9010   38.5360   30.7480 O.co2 262  GLU262     -0.2457
    124  OE2       -6.3920   39.5590   32.0380 O.co2 262  GLU262     -0.2457
    125  N          0.4650   37.3220   29.2190 N.3   266  ILE266     -0.1231
    126  CA         1.6520   37.9310   28.6140 C.3   266  ILE266      0.1692
    127  C          2.5010   38.6960   29.6180 C.2   266  ILE266      0.2591
    128  O          3.7070   38.7070   29.5050 O.2   266  ILE266     -0.2718
    129  CB         1.3290   38.7720   27.3400 C.3   266  ILE266      0.0266
    130  CG1        2.3990   38.5550   26.2510 C.3   266  ILE266      0.0019
    131  CG2        0.9850   40.1840   27.6610 C.3   266  ILE266      0.0020
    132  CD1        3.6560   39.1890   26.4290 C.3   266  ILE266      0.0001
    133  N          1.8920   39.3240   30.6110 N.am  267  VAL267     -0.1980
    134  CA         2.6880   40.0400   31.6210 C.3   267  VAL267      0.1595
    135  C          3.5110   39.0480   32.4460 C.2   267  VAL267      0.2287
    136  O          4.6220   39.3610   32.8940 O.2   267  VAL267     -0.2864
    137  CB         1.8480   40.9870   32.5290 C.3   267  VAL267      0.0276
    138  CG1        2.7970   41.8960   33.2910 C.3   267  VAL267      0.0022
    139  CG2        0.8290   41.8760   31.7060 C.3   267  VAL267      0.0022
    140  N          6.4980   38.5070   30.5270 N.3   270  GLU270     -0.1245
    141  CA         7.3760   39.6720   30.7050 C.3   270  GLU270      0.1567
    142  C          8.1550   39.5750   31.9940 C.2   270  GLU270      0.2260
    143  O          9.3440   39.8280   31.9820 O.2   270  GLU270     -0.2867
    144  CB         6.5530   40.9550   30.6640 C.3   270  GLU270      0.0388
    145  CG         5.9380   41.2200   29.2730 C.3   270  GLU270      0.1160
    146  CD         5.0160   42.4330   29.2340 C.2   270  GLU270      0.3649
    147  OE1        4.4340   42.7490   30.2960 O.co2 270  GLU270     -0.2457
    148  OE2        4.8490   43.0380   28.1320 O.co2 270  GLU270     -0.2457
@<TRIPOS>BOND
     1    19    18    2
     2    18    17    1
     3    16    17    1
     4    17    20    1
     5    15    14    2
     6    14    13    1
     7    20    21    1
     8    11    10    2
     9    13    12    1
    10    10    12   am
    11    10     9    1
    12    96    94   ar
    13     8     9    1
    14     8     3   am
    15     3     2    1
    16     3     4    2
    17     2     1    1
    18     2     5    1
    19   130   132    1
    20   130   129    1
    21     1     7    1
    22    94    93    1
    23    94    95   ar
    24    93    90    1
    25   129   131    1
    26   129   126    1
    27     5     6    1
    28     7     6    1
    29    90    89    1
    30    90    91    1
    31    89    83   am
    32   148   146   ar
    33   105   104    1
    34    85    82    1
    35    85    86    1
    36    88    86   ar
    37   126   125    1
    38   126   127    1
    39    91    92    2
    40    73    71   am
    41    82    83    1
    42    82    81    1
    43    86    87   ar
    44   146   145    1
    45   146   147   ar
    46   145   144    1
    47    83    84    2
    48   104   103    1
    49   128   127    2
    50   127   133   am
    51   118   119    2
    52   118   117    1
    53    71    72    2
    54    71    70    1
    55    77    76    2
    56    81    76   am
    57   140   141    1
    58   117   116    1
    59   117   120    1
    60   133   134    1
    61   144   141    1
    62   103   102    1
    63   141   142    1
    64   123   122   ar
    65    70    69    1
    66    76    75    1
    67    43    42    1
    68    68    67    2
    69   134   135    1
    70   134   137    1
    71   120   121    1
    72   101   102    1
    73   101    98    1
    74   122   124   ar
    75   122   121    1
    76   139   137    1
    77   143   142    2
    78    69    66    1
    79    53    52    1
    80    97    98    1
    81    67    74   am
    82    67    66    1
    83    75    74    1
    84    75    78    1
    85   135   136    2
    86   137   138    1
    87    98    99    1
    88    42    44    1
    89    42    41    2
    90    39    40    1
    91    39    38    1
    92    99   100    2
    93    66    65    1
    94    40    41    1
    95    52    51    1
    96    28    27    1
    97    78    80    1
    98    78    79    1
    99    29    27    1
   100    38    35    1
   101    27    26    1
   102    51    50    1
   103    59    58    1
   104    34    35    1
   105    34    32   am
   106    31    32    1
   107    31    30    1
   108   115   113   ar
   109   115   114   ar
   110   113   111   ar
   111    35    36    1
   112    62    63    1
   113    62    61    1
   114    32    33    2
   115    50    49    1
   116    63    64    2
   117    30    24   am
   118    26    23    1
   119    25    24    2
   120    61    56   am
   121    24    23    1
   122   114   112   ar
   123   111   110    1
   124   111   112   ar
   125    58    60    1
   126    58    55    1
   127    37    36    2
   128    56    57    2
   129    56    55    1
   130    23    22    1
   131   110   107    1
   132    49    46    1
   133    55    54    1
   134    45    46    1
   135    46    47    1
   136   107   108    1
   137   107   106    1
   138   108   109    2
   139    47    48    2
