@<TRIPOS>MOLECULE
tmp/2geyA00.pdb
 126 119 0 0 0
SMALL
GASTEIGER

@<TRIPOS>ATOM
      1  N         30.8940   18.4850   24.7610 N.3    16  TRP16      -0.1241
      2  CA        32.1340   17.9180   25.2950 C.3    16  TRP16       0.1605
      3  C         32.8040   17.0400   24.2480 C.2    16  TRP16       0.2264
      4  O         34.0100   17.1140   24.0470 O.2    16  TRP16      -0.2867
      5  CB        31.8730   17.0710   26.5460 C.3    16  TRP16       0.0550
      6  CG        32.0250   17.8380   27.8320 C.ar   16  TRP16       0.0003
      7  CD1       31.0650   18.0840   28.7590 C.ar   16  TRP16       0.0946
      8  CD2       33.2210   18.4510   28.3180 C.ar   16  TRP16       0.0152
      9  NE1       31.5880   18.8200   29.7970 N.ar   16  TRP16      -0.2442
     10  CE2       32.9090   19.0640   29.5460 C.ar   16  TRP16       0.0810
     11  CE3       34.5250   18.5460   27.8290 C.ar   16  TRP16       0.0012
     12  CZ2       33.8620   19.7550   30.3040 C.ar   16  TRP16       0.0191
     13  CZ3       35.4720   19.2360   28.5820 C.ar   16  TRP16       0.0001
     14  CH2       35.1280   19.8290   29.8070 C.ar   16  TRP16       0.0015
     15  N         38.9590   24.8530   34.9470 N.3    49  LEU49      -0.1231
     16  CA        39.1570   23.4090   35.0810 C.3    49  LEU49       0.1693
     17  C         38.7640   22.7070   33.7970 C.2    49  LEU49       0.2591
     18  O         39.3920   21.7270   33.3980 O.2    49  LEU49      -0.2718
     19  CB        38.3230   22.8450   36.2320 C.3    49  LEU49       0.0284
     20  CG        38.7800   23.2300   37.6380 C.3    49  LEU49       0.0019
     21  CD1       37.7040   22.8490   38.6400 C.3    49  LEU49       0.0001
     22  CD2       40.1050   22.5540   37.9720 C.3    49  LEU49       0.0001
     23  N         37.7080   23.2090   33.1600 N.am   50  MET50      -0.1979
     24  CA        37.2440   22.6430   31.8980 C.3    50  MET50       0.1605
     25  C         38.2970   22.8580   30.8110 C.2    50  MET50       0.2287
     26  O         38.6390   21.9250   30.0860 O.2    50  MET50      -0.2864
     27  CB        35.9040   23.2680   31.4940 C.3    50  MET50       0.0413
     28  CG        34.7670   22.8950   32.4380 C.3    50  MET50       0.0598
     29  SD        33.2980   23.9290   32.2540 S.3    50  MET50      -0.1393
     30  CE        32.6830   23.3560   30.6750 C.3    50  MET50       0.0692
     31  N         41.4350   20.7720   31.6270 N.3    53  GLY53      -0.1225
     32  CA        41.1310   19.3680   31.3860 C.3    53  GLY53       0.1811
     33  C         41.1730   19.0250   29.9100 C.2    53  GLY53       0.2280
     34  O         41.7500   18.0130   29.5120 O.2    53  GLY53      -0.2866
     35  N         43.7620   16.4370   28.0770 N.3    57  PHE57      -0.1241
     36  CA        43.0860   15.2880   27.4730 C.3    57  PHE57       0.1605
     37  C         42.2880   15.7130   26.2270 C.2    57  PHE57       0.2264
     38  O         41.0540   15.6470   26.2140 O.2    57  PHE57      -0.2867
     39  CB        42.1820   14.6500   28.5220 C.3    57  PHE57       0.0534
     40  CG        42.9030   14.3190   29.7970 C.ar   57  PHE57      -0.0203
     41  CD1       43.8360   13.2950   29.8240 C.ar   57  PHE57      -0.0042
     42  CD2       42.6880   15.0610   30.9550 C.ar   57  PHE57      -0.0042
     43  CE1       44.5270   12.9920   30.9860 C.ar   57  PHE57      -0.0003
     44  CE2       43.3750   14.7570   32.1290 C.ar   57  PHE57      -0.0003
     45  CZ        44.2990   13.7260   32.1370 C.ar   57  PHE57      -0.0000
     46  N         39.3450   13.6070   24.6750 N.3    60  LEU60      -0.1245
     47  CA        38.4840   12.9610   25.6560 C.3    60  LEU60       0.1561
     48  C         37.1030   12.6720   25.0720 C.2    60  LEU60       0.2260
     49  O         36.6190   13.3910   24.1830 O.2    60  LEU60      -0.2867
     50  CB        38.3810   13.7760   26.9460 C.3    60  LEU60       0.0270
     51  CG        37.7130   15.1500   26.8700 C.3    60  LEU60       0.0019
     52  CD1       36.1890   15.0430   26.9630 C.3    60  LEU60       0.0001
     53  CD2       38.2570   16.0520   27.9810 C.3    60  LEU60       0.0001
     54  N         33.1080   11.3210   26.4350 N.3    62  LEU62      -0.1245
     55  CA        32.1700   11.0010   27.5040 C.3    62  LEU62       0.1561
     56  C         31.2240    9.9270   27.0270 C.2    62  LEU62       0.2260
     57  O         30.5790   10.0920   25.9870 O.2    62  LEU62      -0.2867
     58  CB        31.3370   12.2210   27.8860 C.3    62  LEU62       0.0270
     59  CG        31.9790   13.2620   28.7950 C.3    62  LEU62       0.0019
     60  CD1       33.2460   13.8060   28.2000 C.3    62  LEU62       0.0001
     61  CD2       30.9810   14.3720   29.0550 C.3    62  LEU62       0.0001
     62  N         34.5850    8.7340   31.3670 N.3    80  VAL80      -0.1245
     63  CA        35.4450    9.5070   30.4780 C.3    80  VAL80       0.1561
     64  C         36.6490    8.6640   30.0970 C.2    80  VAL80       0.2260
     65  O         37.2460    8.0060   30.9550 O.2    80  VAL80      -0.2867
     66  CB        35.9370   10.8090   31.1400 C.3    80  VAL80       0.0252
     67  CG1       36.7860   11.6190   30.1550 C.3    80  VAL80       0.0019
     68  CG2       34.7550   11.6330   31.6360 C.3    80  VAL80       0.0019
     69  N         49.2020   17.4400   33.4160 N.3    88  PHE88      -0.1241
     70  CA        48.0430   17.4210   34.2920 C.3    88  PHE88       0.1605
     71  C         48.4620   17.0620   35.7120 C.2    88  PHE88       0.2264
     72  O         49.1860   16.0890   35.9200 O.2    88  PHE88      -0.2867
     73  CB        47.0070   16.4190   33.7800 C.3    88  PHE88       0.0534
     74  CG        45.6670   16.5560   34.4360 C.ar   88  PHE88      -0.0203
     75  CD1       44.8890   17.6830   34.2150 C.ar   88  PHE88      -0.0042
     76  CD2       45.1850   15.5730   35.2800 C.ar   88  PHE88      -0.0042
     77  CE1       43.6530   17.8220   34.8210 C.ar   88  PHE88      -0.0003
     78  CE2       43.9470   15.7030   35.8940 C.ar   88  PHE88      -0.0003
     79  CZ        43.1780   16.8280   35.6610 C.ar   88  PHE88      -0.0000
     80  N         38.1870    7.9120   33.8000 N.3   100  TRP100     -0.1241
     81  CA        37.6190    8.2030   35.0960 C.3   100  TRP100      0.1605
     82  C         36.0980    8.1920   35.0010 C.2   100  TRP100      0.2264
     83  O         35.5380    7.9570   33.9270 O.2   100  TRP100     -0.2867
     84  CB        38.1870    9.5060   35.6950 C.3   100  TRP100      0.0550
     85  CG        37.8710   10.7710   34.9850 C.ar  100  TRP100      0.0003
     86  CD1       36.8520   11.6280   35.2610 C.ar  100  TRP100      0.0946
     87  CD2       38.6140   11.3620   33.9140 C.ar  100  TRP100      0.0152
     88  NE1       36.8960   12.7060   34.4190 N.ar  100  TRP100     -0.2442
     89  CE2       37.9740   12.5730   33.5840 C.ar  100  TRP100      0.0810
     90  CE3       39.7610   10.9860   33.2050 C.ar  100  TRP100      0.0012
     91  CZ2       38.4400   13.4130   32.5700 C.ar  100  TRP100      0.0191
     92  CZ3       40.2170   11.8090   32.1980 C.ar  100  TRP100      0.0001
     93  CH2       39.5550   13.0130   31.8880 C.ar  100  TRP100      0.0015
     94  N         32.2340    9.7590   36.6680 N.3   102  LEU102     -0.1245
     95  CA        31.5920   10.8370   37.4020 C.3   102  LEU102      0.1561
     96  C         30.0830   10.7610   37.2840 C.2   102  LEU102      0.2260
     97  O         29.5620   10.1040   36.3900 O.2   102  LEU102     -0.2867
     98  CB        32.0980   12.1840   36.8860 C.3   102  LEU102      0.0270
     99  CG        31.9250   12.4190   35.3790 C.3   102  LEU102      0.0019
    100  CD1       30.6790   13.2170   35.1010 C.3   102  LEU102      0.0001
    101  CD2       33.1370   13.1130   34.7860 C.3   102  LEU102      0.0001
    102  N         27.0890   13.7210   37.1190 N.3   104  GLU104     -0.1245
    103  CA        26.7350   15.1300   37.0840 C.3   104  GLU104      0.1567
    104  C         25.2470   15.2500   37.3270 C.2   104  GLU104      0.2260
    105  O         24.4700   14.5130   36.7320 O.2   104  GLU104     -0.2867
    106  CB        27.0690   15.7360   35.7240 C.3   104  GLU104      0.0388
    107  CG        28.5650   15.8060   35.4770 C.3   104  GLU104      0.1160
    108  CD        28.9380   16.5820   34.2460 C.2   104  GLU104      0.3649
    109  OE1       29.0700   15.9430   33.1720 O.co2 104  GLU104     -0.2457
    110  OE2       29.1250   17.8230   34.3470 O.co2 104  GLU104     -0.2457
    111  N         33.0120   13.1340   41.3580 N.3   120  ILE120     -0.1245
    112  CA        33.9990   12.6660   40.4140 C.3   120  ILE120      0.1561
    113  C         34.9510   11.6780   41.0750 C.2   120  ILE120      0.2260
    114  O         35.5900   11.9980   42.0790 O.2   120  ILE120     -0.2867
    115  CB        34.8060   13.8300   39.8170 C.3   120  ILE120      0.0252
    116  CG1       33.8640   14.8740   39.2060 C.3   120  ILE120      0.0019
    117  CG2       35.7980   13.3000   38.7700 C.3   120  ILE120      0.0019
    118  CD1       34.5390   16.1360   38.7920 C.3   120  ILE120      0.0001
    119  N         38.2240   10.0890   40.3910 N.3   122  MET122     -0.1245
    120  CA        39.4550   10.1530   39.6070 C.3   122  MET122      0.1570
    121  C         40.4370    9.0400   39.9790 C.2   122  MET122      0.2261
    122  O         41.5570    8.9880   39.4720 O.2   122  MET122     -0.2867
    123  CB        40.1330   11.5040   39.8010 C.3   122  MET122      0.0387
    124  CG        39.2950   12.6920   39.3670 C.3   122  MET122      0.0595
    125  SD        40.2180   13.7910   38.2970 S.3   122  MET122     -0.1393
    126  CE        39.8030   13.0300   36.7380 C.3   122  MET122      0.0692
@<TRIPOS>BOND
     1     4     3    2
     2    49    48    2
     3     3     2    1
     4    46    47    1
     5     1     2    1
     6    48    47    1
     7     2     5    1
     8    47    50    1
     9    57    56    2
    10    38    37    2
    11    37    36    1
    12    54    55    1
    13     5     6    1
    14    51    50    1
    15    51    52    1
    16    51    53    1
    17    56    55    1
    18    36    35    1
    19    36    39    1
    20    55    58    1
    21    11     8   ar
    22    11    13   ar
    23     6     8   ar
    24     6     7   ar
    25    58    59    1
    26    60    59    1
    27     8    10   ar
    28    39    40    1
    29    13    14   ar
    30     7     9   ar
    31    59    61    1
    32    34    33    2
    33    10     9   ar
    34    10    12   ar
    35    40    41   ar
    36    40    42   ar
    37    14    12   ar
    38    41    43   ar
    39    33    32    1
    40    26    25    2
    41    64    63    1
    42    64    65    2
    43    67    66    1
    44    63    66    1
    45    63    62    1
    46    30    29    1
    47    25    24    1
    48    42    44   ar
    49    43    45   ar
    50    66    68    1
    51    32    31    1
    52    27    24    1
    53    27    28    1
    54    93    92   ar
    55    93    91   ar
    56    24    23    1
    57    44    45   ar
    58    92    90   ar
    59    29    28    1
    60    91    89   ar
    61    23    17   am
    62   109   108   ar
    63    90    87   ar
    64    18    17    2
    65    69    70    1
    66    89    87   ar
    67    89    88   ar
    68    73    70    1
    69    73    74    1
    70    17    16    1
    71    80    81    1
    72    87    85   ar
    73    83    82    2
    74    75    74   ar
    75    75    77   ar
    76   108   110   ar
    77   108   107    1
    78    70    71    1
    79    88    86   ar
    80    74    76   ar
    81   101    99    1
    82    77    79   ar
    83    15    16    1
    84    85    86   ar
    85    85    84    1
    86    82    81    1
    87    16    19    1
    88    81    84    1
    89   100    99    1
    90    76    78   ar
    91    99    98    1
    92   107   106    1
    93    79    78   ar
    94    71    72    2
    95   106   103    1
    96    19    20    1
    97    97    96    2
    98    94    95    1
    99   105   104    2
   100   126   125    1
   101    98    95    1
   102   103   102    1
   103   103   104    1
   104    96    95    1
   105    20    22    1
   106    20    21    1
   107   125   124    1
   108   117   115    1
   109   118   116    1
   110   116   115    1
   111   124   123    1
   112   122   121    2
   113   120   123    1
   114   120   121    1
   115   120   119    1
   116   115   112    1
   117   112   113    1
   118   112   111    1
   119   113   114    2
