@<TRIPOS>MOLECULE
tmp/2gf0B00.pdb
 126 118 0 0 0
SMALL
GASTEIGER

@<TRIPOS>ATOM
      1  N         16.1970   22.3360   27.8410 N.3    14  GLY14      -0.1210
      2  CA        15.4830   21.8080   26.6900 C.3    14  GLY14       0.1956
      3  C         14.2790   20.9920   27.1310 C.2    14  GLY14       0.2612
      4  O         14.3600   20.2040   28.0900 O.2    14  GLY14      -0.2717
      5  N         13.1490   21.2150   26.4690 N.am   15  GLY15      -0.1942
      6  CA        11.9500   20.3930   26.6760 C.3    15  GLY15       0.2014
      7  C         11.0030   20.8600   27.7570 C.2    15  GLY15       0.2639
      8  O         10.0080   20.1830   28.0330 O.2    15  GLY15      -0.2714
      9  N         11.2870   21.9930   28.3850 N.am   16  VAL16      -0.1963
     10  CA        10.4310   22.4380   29.4910 C.3    16  VAL16       0.1727
     11  C          9.1340   23.1290   29.0150 C.2    16  VAL16       0.2617
     12  O          8.1930   23.2570   29.7990 O.2    16  VAL16      -0.2715
     13  CB        11.1970   23.3230   30.5050 C.3    16  VAL16       0.0290
     14  CG1       12.3540   22.5510   31.0890 C.3    16  VAL16       0.0023
     15  CG2       11.6700   24.6630   29.8550 C.3    16  VAL16       0.0023
     16  N          9.0910   23.5350   27.7390 N.am   17  GLY17      -0.1940
     17  CA         7.9490   24.2310   27.1450 C.3    17  GLY17       0.2014
     18  C          8.1600   25.7460   26.9600 C.2    17  GLY17       0.2639
     19  O          7.1900   26.5010   26.9030 O.2    17  GLY17      -0.2714
     20  N          9.4060   26.2050   26.8550 N.am   18  LYS18      -0.1963
     21  CA         9.6540   27.6280   26.5280 C.3    18  LYS18       0.1728
     22  C          8.9800   28.0280   25.2210 C.2    18  LYS18       0.2617
     23  O          8.2640   29.0270   25.1690 O.2    18  LYS18      -0.2715
     24  CB        11.1510   27.9490   26.4220 C.3    18  LYS18       0.0311
     25  CG        11.9950   27.6110   27.6650 C.3    18  LYS18       0.0038
     26  CD        13.4860   27.9290   27.4650 C.3    18  LYS18       0.0206
     27  CE        14.1620   27.1120   26.3560 C.3    18  LYS18       0.1093
     28  NZ        14.1200   25.5920   26.5520 N.3    18  LYS18      -0.1314
     29  N          9.2250   27.2640   24.1600 N.am   19  SER19      -0.1936
     30  CA         8.6700   27.6020   22.8510 C.3    19  SER19       0.2055
     31  C          7.1580   27.5090   22.9050 C.2    19  SER19       0.2643
     32  O          6.4690   28.3470   22.3520 O.2    19  SER19      -0.2714
     33  CB         9.2020   26.6800   21.7610 C.3    19  SER19       0.2130
     34  OG        10.5910   26.9050   21.5800 O.3    19  SER19      -0.2179
     35  N          6.6420   26.4920   23.5980 N.am   20  SER20      -0.1949
     36  CA         5.1800   26.3150   23.6910 C.3    20  SER20       0.1924
     37  C          4.5400   27.4980   24.4200 C.2    20  SER20       0.2314
     38  O          3.4670   27.9610   24.0210 O.2    20  SER20      -0.2863
     39  CB         4.8560   24.9990   24.4060 C.3    20  SER20       0.2116
     40  OG         5.2620   23.8820   23.6140 O.3    20  SER20      -0.2180
     41  N          3.7910   24.5510   19.5140 N.3    31  ARG31      -0.1245
     42  CA         5.1430   24.3170   19.0030 C.3    31  ARG31       0.1563
     43  C          5.1560   23.0630   18.1130 C.2    31  ARG31       0.2260
     44  O          4.9920   21.9380   18.5790 O.2    31  ARG31      -0.2867
     45  CB         6.1430   24.1620   20.1490 C.3    31  ARG31       0.0307
     46  CG         7.6170   23.8640   19.7330 C.3    31  ARG31       0.0489
     47  CD         8.1350   24.8480   18.6850 C.3    31  ARG31       0.2205
     48  NE         9.5940   24.9630   18.5890 N.pl3  31  ARG31      -0.0865
     49  CZ        10.4140   24.1370   17.9220 C.cat  31  ARG31       0.5346
     50  NH1        9.9700   23.0390   17.3140 N.pl3  31  ARG31       0.1354
     51  NH2       11.7120   24.3990   17.8950 N.pl3  31  ARG31       0.1354
     52  N          6.7310   20.1400   16.5020 N.3    33  THR33      -0.1218
     53  CA         7.9270   19.4270   16.9320 C.3    33  THR33       0.1862
     54  C          9.0080   19.3900   15.8390 C.2    33  THR33       0.2287
     55  O         10.1980   19.3800   16.1530 O.2    33  THR33      -0.2866
     56  CB         7.5910   18.0080   17.4920 C.3    33  THR33       0.1770
     57  OG1        8.7490   17.4650   18.1350 O.3    33  THR33      -0.2211
     58  CG2        7.1150   17.0560   16.4040 C.3    33  THR33       0.0375
     59  N         15.1070   23.9130   15.7270 N.3    37  THR37      -0.1218
     60  CA        15.3200   24.5020   17.0270 C.3    37  THR37       0.1862
     61  C         16.3760   25.5930   16.8920 C.2    37  THR37       0.2287
     62  O         17.5560   25.3090   16.7280 O.2    37  THR37      -0.2866
     63  CB        15.7760   23.4390   18.0700 C.3    37  THR37       0.1770
     64  OG1       14.7730   22.4210   18.1840 O.3    37  THR37      -0.2211
     65  CG2       16.0160   24.0840   19.4410 C.3    37  THR37       0.0375
     66  N         14.8420   31.3760   23.7510 N.3    60  THR60      -0.1218
     67  CA        16.1870   30.8250   23.6320 C.3    60  THR60       0.1862
     68  C         16.1850   29.3160   23.3730 C.2    60  THR60       0.2287
     69  O         15.1520   28.6490   23.5110 O.2    60  THR60      -0.2866
     70  CB        17.0490   31.0980   24.8820 C.3    60  THR60       0.1770
     71  OG1       16.5210   30.3960   26.0160 O.3    60  THR60      -0.2211
     72  CG2       17.1470   32.6350   25.1960 C.3    60  THR60       0.0375
     73  N          6.1620   25.0260   34.3550 N.3   119  ASN119     -0.1225
     74  CA         5.2860   24.7000   33.2600 C.3   119  ASN119      0.1785
     75  C          4.9360   23.2130   33.2780 C.2   119  ASN119      0.2597
     76  O          5.5650   22.4110   33.9980 O.2   119  ASN119     -0.2718
     77  CB         5.9500   25.0650   31.9180 C.3   119  ASN119      0.1169
     78  CG         4.9870   24.9410   30.7140 C.2   119  ASN119      0.2627
     79  OD1        3.8470   25.4430   30.7400 O.2   119  ASN119     -0.2716
     80  ND2        5.4410   24.2520   29.6650 N.am  119  ASN119     -0.0877
     81  N          3.9080   22.8840   32.4990 N.am  120  LYS120     -0.1980
     82  CA         3.3450   21.5410   32.3700 C.3   120  LYS120      0.1596
     83  C          2.5530   21.1810   33.6120 C.2   120  LYS120      0.2287
     84  O          2.5120   20.0120   33.9770 O.2   120  LYS120     -0.2864
     85  CB         4.4140   20.4730   32.1020 C.3   120  LYS120      0.0298
     86  CG         5.3250   20.7710   30.9510 C.3   120  LYS120      0.0038
     87  CD         6.0400   19.5230   30.4130 C.3   120  LYS120      0.0206
     88  CE         7.0990   19.8870   29.3610 C.3   120  LYS120      0.1093
     89  NZ         7.6710   18.6130   28.7120 N.3   120  LYS120     -0.1314
     90  N         -0.4690   20.8180   33.9930 N.3   122  ASP122     -0.1225
     91  CA        -1.5130   19.8630   33.6770 C.3   122  ASP122      0.1805
     92  C         -1.0950   18.4220   33.9510 C.2   122  ASP122      0.2597
     93  O         -1.9350   17.5280   33.9190 O.2   122  ASP122     -0.2718
     94  CB        -1.8910   19.9620   32.2020 C.3   122  ASP122      0.1424
     95  CG        -0.7060   19.7480   31.2940 C.2   122  ASP122      0.3668
     96  OD1        0.0610   20.7310   31.1080 O.co2 122  ASP122     -0.2456
     97  OD2       -0.5230   18.6050   30.8130 O.co2 122  ASP122     -0.2456
     98  N          0.1900   18.1930   34.1800 N.am  123  GLU123     -0.1979
     99  CA         0.7160   16.8400   34.4090 C.3   123  GLU123      0.1602
    100  C          0.5280   16.4200   35.8570 C.2   123  GLU123      0.2287
    101  O          0.6890   17.2420   36.7860 O.2   123  GLU123     -0.2864
    102  CB         2.1790   16.7600   34.0230 C.3   123  GLU123      0.0415
    103  CG         2.4400   16.9200   32.5500 C.3   123  GLU123      0.1163
    104  CD         2.3620   15.6170   31.8030 C.2   123  GLU123      0.3649
    105  OE1        2.1300   14.5860   32.4470 O.co2 123  GLU123     -0.2457
    106  OE2        2.5480   15.6280   30.5730 O.co2 123  GLU123     -0.2457
    107  N          0.3640   26.0220   32.1880 N.3   148  SER148     -0.1202
    108  CA         0.2540   24.9440   31.2210 C.3   148  SER148      0.2020
    109  C          0.0920   25.5880   29.8590 C.2   148  SER148      0.2619
    110  O         -1.0120   26.0300   29.5180 O.2   148  SER148     -0.2717
    111  CB        -0.9370   24.0290   31.4900 C.3   148  SER148      0.2103
    112  OG        -1.0570   23.0410   30.4840 O.3   148  SER148     -0.2182
    113  N          1.1690   25.6100   29.0730 N.am  149  ALA149     -0.1965
    114  CA         1.0760   26.0530   27.6780 C.3   149  ALA149      0.1728
    115  C          0.0020   25.2590   26.9400 C.2   149  ALA149      0.2616
    116  O         -0.7530   25.8070   26.1490 O.2   149  ALA149     -0.2715
    117  CB         2.4380   25.9480   26.9630 C.3   149  ALA149      0.0334
    118  N         -0.0600   23.9550   27.2000 N.am  150  LYS150     -0.1977
    119  CA        -0.9740   23.0880   26.5180 C.3   150  LYS150      0.1596
    120  C         -2.4220   23.5050   26.7320 C.2   150  LYS150      0.2287
    121  O         -3.2330   23.4310   25.8030 O.2   150  LYS150     -0.2864
    122  CB        -0.7800   21.6480   27.0250 C.3   150  LYS150      0.0298
    123  CG        -1.6950   20.6380   26.4180 C.3   150  LYS150      0.0038
    124  CD        -1.5520   19.2570   27.1040 C.3   150  LYS150      0.0206
    125  CE        -0.6500   18.3280   26.3060 C.3   150  LYS150      0.1093
    126  NZ        -1.3130   17.9420   25.0230 N.3   150  LYS150     -0.1314
@<TRIPOS>BOND
     1    59    60    1
     2    54    55    2
     3    54    53    1
     4    58    56    1
     5    52    53    1
     6    62    61    2
     7    61    60    1
     8    53    56    1
     9    60    63    1
    10    50    49    1
    11    56    57    1
    12    51    49    1
    13    49    48    2
    14    63    64    1
    15    63    65    1
    16    43    44    2
    17    43    42    1
    18    48    47    1
    19    47    46    1
    20    42    41    1
    21    42    45    1
    22    46    45    1
    23    34    33    1
    24    33    30    1
    25    32    31    2
    26    30    31    1
    27    30    29    1
    28    31    35   am
    29    68    69    2
    30    68    67    1
    31    35    36    1
    32    40    39    1
    33    67    66    1
    34    67    70    1
    35    36    39    1
    36    36    37    1
    37    38    37    2
    38    29    22   am
    39    70    72    1
    40    70    71    1
    41   126   125    1
    42    23    22    2
    43    22    21    1
    44   121   120    2
    45   116   115    2
    46   125   124    1
    47    27    28    1
    48    27    26    1
    49   123   122    1
    50   123   124    1
    51    24    21    1
    52    24    25    1
    53     5     6    1
    54     5     3   am
    55   119   120    1
    56   119   122    1
    57   119   118    1
    58    21    20    1
    59     6     7    1
    60     2     3    1
    61     2     1    1
    62    20    18   am
    63    19    18    2
    64   115   118   am
    65   115   114    1
    66    18    17    1
    67   117   114    1
    68     3     4    2
    69    17    16    1
    70    26    25    1
    71   114   113    1
    72    16    11   am
    73     7     8    2
    74     7     9   am
    75     9    10    1
    76    89    88    1
    77    11    10    1
    78    11    12    2
    79   113   109   am
    80    88    87    1
    81    10    13    1
    82   110   109    2
    83    80    78   am
    84    15    13    1
    85   109   108    1
    86    87    86    1
    87   112   111    1
    88    13    14    1
    89   106   104   ar
    90    78    79    2
    91    78    77    1
    92    97    95   ar
    93    86    85    1
    94    96    95   ar
    95   108   111    1
    96   108   107    1
    97    95    94    1
    98   104   105   ar
    99   104   103    1
   100    77    74    1
   101    85    82    1
   102    94    91    1
   103    82    81    1
   104    82    83    1
   105    81    75   am
   106   103   102    1
   107    74    75    1
   108    74    73    1
   109    75    76    2
   110    83    84    2
   111    91    92    1
   112    91    90    1
   113    93    92    2
   114    92    98   am
   115   102    99    1
   116    98    99    1
   117    99   100    1
   118   100   101    2
