@<TRIPOS>MOLECULE
tmp/2gf3B02.pdb
 106 102 0 0 0
SMALL
GASTEIGER

@<TRIPOS>ATOM
      1  N         48.7480   33.7760   18.5180 N.3    49  ARG49      -0.1231
      2  CA        47.7740   32.7880   18.0550 C.3    49  ARG49       0.1694
      3  C         47.8560   31.5680   18.9740 C.2    49  ARG49       0.2591
      4  O         48.9490   31.1680   19.4170 O.2    49  ARG49      -0.2718
      5  CB        48.1180   32.3510   16.6110 C.3    49  ARG49       0.0321
      6  CG        47.9540   33.4400   15.5410 C.3    49  ARG49       0.0489
      7  CD        46.4810   33.6960   15.2990 C.3    49  ARG49       0.2205
      8  NE        46.2080   34.6430   14.2380 N.pl3  49  ARG49      -0.0865
      9  CZ        46.3110   35.9560   14.3880 C.cat  49  ARG49       0.5346
     10  NH1       46.7060   36.4840   15.5550 N.pl3  49  ARG49       0.1354
     11  NH2       45.9650   36.7520   13.3940 N.pl3  49  ARG49       0.1354
     12  N         46.7120   30.9580   19.2580 N.am   50  ILE50      -0.1980
     13  CA        46.6740   29.7540   20.0610 C.3    50  ILE50       0.1595
     14  C         46.9590   28.5200   19.2040 C.2    50  ILE50       0.2287
     15  O         46.5090   28.4470   18.0410 O.2    50  ILE50      -0.2864
     16  CB        45.2400   29.5440   20.6420 C.3    50  ILE50       0.0276
     17  CG1       44.9200   30.6460   21.6390 C.3    50  ILE50       0.0022
     18  CG2       45.0810   28.1300   21.2230 C.3    50  ILE50       0.0022
     19  CD1       45.5950   30.4950   22.9330 C.3    50  ILE50       0.0001
     20  N         46.3840   24.4730   19.7880 N.3    52  ARG52      -0.1245
     21  CA        45.7680   23.4070   20.5860 C.3    52  ARG52       0.1563
     22  C         46.0810   22.0940   19.8820 C.2    52  ARG52       0.2260
     23  O         46.3350   22.0900   18.6790 O.2    52  ARG52      -0.2867
     24  CB        44.2200   23.5740   20.6350 C.3    52  ARG52       0.0307
     25  CG        43.7450   24.7710   21.4760 C.3    52  ARG52       0.0489
     26  CD        42.2540   25.0640   21.2760 C.3    52  ARG52       0.2205
     27  NE        41.9900   25.6450   19.9540 N.pl3  52  ARG52      -0.0865
     28  CZ        41.1170   25.1690   19.0680 C.cat  52  ARG52       0.5346
     29  NH1       40.4090   24.0770   19.3200 N.pl3  52  ARG52       0.1354
     30  NH2       40.9010   25.8180   17.9370 N.pl3  52  ARG52       0.1354
     31  N         40.1460   28.9550   25.1360 N.3   245  MET245     -0.1245
     32  CA        39.1020   29.0320   24.1120 C.3   245  MET245      0.1570
     33  C         37.9180   28.3590   24.7960 C.2   245  MET245      0.2261
     34  O         37.9630   27.1750   25.1330 O.2   245  MET245     -0.2867
     35  CB        39.4970   28.3200   22.8230 C.3   245  MET245      0.0387
     36  CG        38.4430   28.5130   21.7180 C.3   245  MET245      0.0595
     37  SD        39.0750   27.9000   20.1460 S.3   245  MET245     -0.1393
     38  CE        37.6280   27.8920   19.1700 C.3   245  MET245      0.0692
     39  N         37.9750   33.6130   23.1400 N.3   254  TYR254     -0.1241
     40  CA        39.3230   33.0990   23.3040 C.3   254  TYR254      0.1605
     41  C         40.2070   34.1840   23.8380 C.2   254  TYR254      0.2264
     42  O         39.9310   35.3800   23.6840 O.2   254  TYR254     -0.2867
     43  CB        39.8780   32.6140   21.9810 C.3   254  TYR254      0.0534
     44  CG        39.8730   33.6680   20.9050 C.ar  254  TYR254     -0.0201
     45  CD1       38.7760   33.8260   20.0650 C.ar  254  TYR254     -0.0009
     46  CD2       40.9720   34.5020   20.7140 C.ar  254  TYR254     -0.0009
     47  CE1       38.7760   34.7840   19.0570 C.ar  254  TYR254      0.0417
     48  CE2       40.9750   35.4590   19.6940 C.ar  254  TYR254      0.0417
     49  CZ        39.8760   35.5880   18.8810 C.ar  254  TYR254      0.1957
     50  OH        39.9100   36.5450   17.8900 O.3   254  TYR254     -0.2866
     51  N         44.3830   35.2160   25.7590 N.3   256  PHE256     -0.1241
     52  CA        45.7930   34.9860   26.0350 C.3   256  PHE256      0.1605
     53  C         46.2240   35.6620   27.3100 C.2   256  PHE256      0.2264
     54  O         45.7410   36.7480   27.6360 O.2   256  PHE256     -0.2867
     55  CB        46.6650   35.6130   24.9190 C.3   256  PHE256      0.0534
     56  CG        46.3570   35.1040   23.5350 C.ar  256  PHE256     -0.0203
     57  CD1       47.1930   34.1770   22.9260 C.ar  256  PHE256     -0.0042
     58  CD2       45.2150   35.5370   22.8480 C.ar  256  PHE256     -0.0042
     59  CE1       46.9080   33.6800   21.6510 C.ar  256  PHE256     -0.0003
     60  CE2       44.9200   35.0420   21.5620 C.ar  256  PHE256     -0.0003
     61  CZ        45.7740   34.1130   20.9650 C.ar  256  PHE256     -0.0000
     62  N         34.9050   34.8500   19.0460 N.3   269  HIS269     -0.1241
     63  CA        35.1090   33.9970   17.8780 C.3   269  HIS269      0.1621
     64  C         33.9300   33.7480   16.9730 C.2   269  HIS269      0.2264
     65  O         34.0910   33.6790   15.7520 O.2   269  HIS269     -0.2867
     66  CB        35.6500   32.6540   18.4030 C.3   269  HIS269      0.0745
     67  CG        36.1730   31.7210   17.3560 C.ar  269  HIS269      0.0817
     68  ND1       37.2230   32.0460   16.5220 N.ar  269  HIS269     -0.2268
     69  CD2       35.8800   30.4220   17.1050 C.ar  269  HIS269      0.1154
     70  CE1       37.5560   30.9860   15.8070 C.ar  269  HIS269      0.1986
     71  NE2       36.7590   29.9870   16.1410 N.ar  269  HIS269     -0.2212
     72  N         38.6970   36.5110    9.2600 N.3   317  TYR317     -0.1241
     73  CA        38.5870   35.0570    9.1010 C.3   317  TYR317      0.1605
     74  C         38.0000   34.8760    7.6910 C.2   317  TYR317      0.2264
     75  O         37.3150   35.7810    7.1750 O.2   317  TYR317     -0.2867
     76  CB        37.5610   34.4320   10.0360 C.3   317  TYR317      0.0534
     77  CG        37.8110   34.4690   11.5280 C.ar  317  TYR317     -0.0201
     78  CD1       39.0340   34.8510   12.0790 C.ar  317  TYR317     -0.0009
     79  CD2       36.8020   34.0660   12.3830 C.ar  317  TYR317     -0.0009
     80  CE1       39.2230   34.8130   13.4770 C.ar  317  TYR317      0.0417
     81  CE2       36.9740   34.0210   13.7610 C.ar  317  TYR317      0.0417
     82  CZ        38.1900   34.3940   14.2940 C.ar  317  TYR317      0.1957
     83  OH        38.3970   34.3680   15.6490 O.3   317  TYR317     -0.2866
     84  N         39.0410   30.9710   10.5660 N.3   344  GLY344     -0.1210
     85  CA        39.3910   31.4540   11.8890 C.3   344  GLY344      0.1956
     86  C         40.1960   30.5330   12.7850 C.2   344  GLY344      0.2611
     87  O         40.3760   30.8580   13.9620 O.2   344  GLY344     -0.2717
     88  N         40.7150   29.4210   12.2540 N.am  345  HIS345     -0.1975
     89  CA        41.4720   28.5000   13.1090 C.3   345  HIS345      0.1656
     90  C         42.6350   27.8120   12.4120 C.2   345  HIS345      0.2291
     91  O         43.0840   26.7500   12.8390 O.2   345  HIS345     -0.2864
     92  CB        40.5100   27.4860   13.7970 C.3   345  HIS345      0.0771
     93  CG        39.8080   26.5340   12.8710 C.ar  345  HIS345      0.0820
     94  ND1       40.0950   25.1840   12.8570 N.ar  345  HIS345     -0.2267
     95  CD2       38.7720   26.7070   12.0100 C.ar  345  HIS345      0.1154
     96  CE1       39.2750   24.5700   12.0230 C.ar  345  HIS345      0.1986
     97  NE2       38.4650   25.4700   11.4950 N.ar  345  HIS345     -0.2212
     98  N         47.6490   27.9030   13.6280 N.3   348  LYS348     -0.1245
     99  CA        48.4110   26.8780   14.3210 C.3   348  LYS348      0.1561
    100  C         48.9130   25.7820   13.3960 C.2   348  LYS348      0.2260
    101  O         49.9160   25.1490   13.6870 O.2   348  LYS348     -0.2867
    102  CB        47.5650   26.2640   15.4550 C.3   348  LYS348      0.0271
    103  CG        46.3930   25.4270   14.9540 C.3   348  LYS348      0.0035
    104  CD        45.4930   24.8990   16.0730 C.3   348  LYS348      0.0206
    105  CE        44.6510   25.9750   16.6960 C.3   348  LYS348      0.1093
    106  NZ        43.6690   26.5300   15.6960 N.3   348  LYS348     -0.1314
@<TRIPOS>BOND
     1    75    74    2
     2    74    73    1
     3    73    72    1
     4    73    76    1
     5    76    77    1
     6    84    85    1
     7    97    95   ar
     8    97    96   ar
     9    77    78   ar
    10    77    79   ar
    11    85    86    1
    12    95    93   ar
    13    96    94   ar
    14    78    80   ar
    15    88    86   am
    16    88    89    1
    17    79    81   ar
    18    90    91    2
    19    90    89    1
    20    86    87    2
    21    94    93   ar
    22    93    92    1
    23    89    92    1
    24    11     9    1
    25   100   101    2
    26   100    99    1
    27    80    82   ar
    28    98    99    1
    29    81    82   ar
    30     8     9    2
    31     8     7    1
    32    82    83    1
    33    99   102    1
    34     9    10    1
    35   103   102    1
    36   103   104    1
    37     7     6    1
    38     6     5    1
    39   106   105    1
    40    65    64    2
    41    70    71   ar
    42    70    68   ar
    43   104   105    1
    44    71    69   ar
    45    68    67   ar
    46     5     2    1
    47    64    63    1
    48    69    67   ar
    49    67    66    1
    50    63    66    1
    51    63    62    1
    52    50    49    1
    53    30    28    1
    54    15    14    2
    55     2     1    1
    56     2     3    1
    57    23    22    2
    58    49    47   ar
    59    49    48   ar
    60     3    12   am
    61     3     4    2
    62    47    45   ar
    63    28    29    1
    64    28    27    2
    65    38    37    1
    66    14    13    1
    67    12    13    1
    68    48    46   ar
    69    20    21    1
    70    22    21    1
    71    27    26    1
    72    13    16    1
    73    45    44   ar
    74    37    36    1
    75    21    24    1
    76    24    25    1
    77    16    18    1
    78    16    17    1
    79    46    44   ar
    80    44    43    1
    81    61    60   ar
    82    61    59   ar
    83    26    25    1
    84    60    58   ar
    85    17    19    1
    86    59    57   ar
    87    36    35    1
    88    43    40    1
    89    35    32    1
    90    58    56   ar
    91    57    56   ar
    92    39    40    1
    93    40    41    1
    94    56    55    1
    95    42    41    2
    96    32    33    1
    97    32    31    1
    98    33    34    2
    99    55    52    1
   100    51    52    1
   101    52    53    1
   102    53    54    2
