@<TRIPOS>MOLECULE
tmp/2gf6A01.pdb
 104 106 0 0 0
SMALL
GASTEIGER

@<TRIPOS>ATOM
      1  N          0.7610   39.6660   44.9530 N.3    19  GLN19      -0.1245
      2  CA         0.0930   40.5200   43.9670 C.3    19  GLN19       0.1566
      3  C         -1.3930   40.8310   44.3110 C.2    19  GLN19       0.2260
      4  O         -2.0740   41.4640   43.5250 O.2    19  GLN19      -0.2867
      5  CB         0.2490   39.9260   42.5570 C.3    19  GLN19       0.0367
      6  CG         1.7290   39.8230   42.0720 C.3    19  GLN19       0.0905
      7  CD         1.9000   39.3300   40.6200 C.2    19  GLN19       0.2608
      8  OE1        1.3470   38.3160   40.2350 O.2    19  GLN19      -0.2717
      9  NE2        2.7130   40.0260   39.8400 N.am   19  GLN19      -0.0878
     10  N         -4.0910   39.0320   44.4510 N.3    21  ILE21      -0.1231
     11  CA        -5.0630   38.3690   43.5990 C.3    21  ILE21       0.1692
     12  C         -4.8800   36.9010   43.7890 C.2    21  ILE21       0.2592
     13  O         -3.8090   36.4590   44.2970 O.2    21  ILE21      -0.2718
     14  CB        -4.8360   38.6880   42.0950 C.3    21  ILE21       0.0266
     15  CG1       -3.4250   38.2550   41.6290 C.3    21  ILE21       0.0019
     16  CG2       -5.0250   40.1710   41.8520 C.3    21  ILE21       0.0020
     17  CD1       -3.2040   38.4650   40.1270 C.3    21  ILE21       0.0001
     18  N         -5.9010   36.1510   43.3870 N.am   22  ALA22      -0.1966
     19  CA        -5.8110   34.6960   43.4000 C.3    22  ALA22       0.1728
     20  C         -4.7110   34.1940   42.4560 C.2    22  ALA22       0.2616
     21  O         -4.5360   34.7020   41.3340 O.2    22  ALA22      -0.2715
     22  CB        -7.1380   34.0900   43.0340 C.3    22  ALA22       0.0334
     23  N         -3.9870   33.1920   42.9360 N.am   23  HIS23      -0.1959
     24  CA        -2.8230   32.6340   42.2560 C.3    23  HIS23       0.1787
     25  C         -3.1890   31.3410   41.5030 C.2    23  HIS23       0.2620
     26  O         -4.3130   30.8160   41.6130 O.2    23  HIS23      -0.2715
     27  CB        -1.6750   32.3860   43.2730 C.3    23  HIS23       0.0785
     28  CG        -2.0560   31.5420   44.4640 C.ar   23  HIS23       0.0821
     29  ND1       -2.7720   30.3670   44.3650 N.ar   23  HIS23      -0.2267
     30  CD2       -1.7920   31.7000   45.7830 C.ar   23  HIS23       0.1154
     31  CE1       -2.9440   29.8470   45.5630 C.ar   23  HIS23       0.1986
     32  NE2       -2.3330   30.6210   46.4410 N.ar   23  HIS23      -0.2212
     33  N         -2.2250   30.8320   40.7450 N.am   24  TYR24      -0.1974
     34  CA        -2.4140   29.6500   39.9230 C.3    24  TYR24       0.1639
     35  C         -3.0820   28.4910   40.6050 C.2    24  TYR24       0.2290
     36  O         -3.9230   27.8310   39.9800 O.2    24  TYR24      -0.2864
     37  CB        -1.0460   29.1560   39.4700 C.3    24  TYR24       0.0560
     38  CG        -0.9640   28.0430   38.4430 C.ar   24  TYR24      -0.0198
     39  CD1       -1.1150   28.3110   37.0910 C.ar   24  TYR24      -0.0009
     40  CD2       -0.5990   26.7650   38.8100 C.ar   24  TYR24      -0.0009
     41  CE1       -0.9830   27.3400   36.1400 C.ar   24  TYR24       0.0417
     42  CE2       -0.4450   25.7450   37.8400 C.ar   24  TYR24       0.0417
     43  CZ        -0.6390   26.0550   36.5040 C.ar   24  TYR24       0.1957
     44  OH        -0.4930   25.1290   35.5210 O.3    24  TYR24      -0.2866
     45  N         -6.9710   28.4190   41.5160 N.3    27  TYR27      -0.1241
     46  CA        -7.9530   28.0790   40.4750 C.3    27  TYR27       0.1605
     47  C         -8.1860   26.5840   40.4390 C.2    27  TYR27       0.2264
     48  O         -9.3030   26.1260   40.1730 O.2    27  TYR27      -0.2867
     49  CB        -7.5280   28.6720   39.1130 C.3    27  TYR27       0.0534
     50  CG        -7.7320   30.1940   39.0510 C.ar   27  TYR27      -0.0201
     51  CD1       -8.9820   30.7390   38.7800 C.ar   27  TYR27      -0.0009
     52  CD2       -6.7010   31.0780   39.3340 C.ar   27  TYR27      -0.0009
     53  CE1       -9.1820   32.0950   38.7640 C.ar   27  TYR27       0.0417
     54  CE2       -6.8950   32.4420   39.3090 C.ar   27  TYR27       0.0417
     55  CZ        -8.1310   32.9490   39.0310 C.ar   27  TYR27       0.1957
     56  OH        -8.3590   34.3230   39.0080 O.3    27  TYR27      -0.2866
     57  N         -7.5260   30.5850   30.7010 N.3    64  ILE64      -0.1231
     58  CA        -7.3850   31.9790   30.2980 C.3    64  ILE64       0.1692
     59  C         -7.9620   32.8310   31.4450 C.2    64  ILE64       0.2592
     60  O         -9.0780   32.6000   31.9030 O.2    64  ILE64      -0.2718
     61  CB        -8.1520   32.2670   28.9840 C.3    64  ILE64       0.0266
     62  CG1       -7.5090   31.5210   27.8150 C.3    64  ILE64       0.0019
     63  CG2       -8.1760   33.7670   28.6470 C.3    64  ILE64       0.0020
     64  CD1       -8.4560   31.3610   26.5770 C.3    64  ILE64       0.0001
     65  N         -7.1910   33.8220   31.8910 N.am   65  TYR65      -0.1962
     66  CA        -7.5320   34.6330   33.0360 C.3    65  TYR65       0.1771
     67  C         -7.8580   36.0260   32.5390 C.2    65  TYR65       0.2620
     68  O         -6.9600   36.8260   32.3030 O.2    65  TYR65      -0.2715
     69  CB        -6.3590   34.6710   34.0040 C.3    65  TYR65       0.0574
     70  CG        -5.8150   33.3000   34.3380 C.ar   65  TYR65      -0.0198
     71  CD1       -4.8410   32.7100   33.5530 C.ar   65  TYR65      -0.0009
     72  CD2       -6.2720   32.5950   35.4410 C.ar   65  TYR65      -0.0009
     73  CE1       -4.3340   31.4520   33.8480 C.ar   65  TYR65       0.0417
     74  CE2       -5.7700   31.3020   35.7510 C.ar   65  TYR65       0.0417
     75  CZ        -4.7930   30.7510   34.9600 C.ar   65  TYR65       0.1957
     76  OH        -4.2800   29.4900   35.2400 O.3    65  TYR65      -0.2866
     77  N         -9.1470   36.3010   32.3510 N.am   66  HIS66      -0.1959
     78  CA        -9.5860   37.5630   31.7750 C.3    66  HIS66       0.1787
     79  C         -9.5290   38.6530   32.8070 C.2    66  HIS66       0.2620
     80  O         -9.2670   39.8240   32.4960 O.2    66  HIS66      -0.2715
     81  CB       -11.0370   37.4680   31.2950 C.3    66  HIS66       0.0785
     82  CG       -11.2460   36.5480   30.1420 C.ar   66  HIS66       0.0821
     83  ND1      -10.8920   36.8860   28.8550 N.ar   66  HIS66      -0.2267
     84  CD2      -11.8360   35.3310   30.0670 C.ar   66  HIS66       0.1154
     85  CE1      -11.2260   35.9020   28.0390 C.ar   66  HIS66       0.1986
     86  NE2      -11.8020   34.9470   28.7500 N.ar   66  HIS66      -0.2212
     87  N         -9.8750   38.2940   34.0320 N.am   67  ARG67      -0.1964
     88  CA        -9.9640   39.2810   35.0790 C.3    67  ARG67       0.1714
     89  C         -9.4510   38.6670   36.3390 C.2    67  ARG67       0.2458
     90  O         -9.5940   37.4480   36.5400 O.2    67  ARG67      -0.2730
     91  CB       -11.4070   39.7080   35.2890 C.3    67  ARG67       0.0347
     92  CG       -11.9910   40.5490   34.1720 C.3    67  ARG67       0.0492
     93  CD       -13.4790   40.7710   34.4280 C.3    67  ARG67       0.2205
     94  NE       -14.2470   40.7850   33.1810 N.pl3  67  ARG67      -0.0865
     95  CZ       -15.0710   41.7570   32.7780 C.cat  67  ARG67       0.5346
     96  NH1      -15.2930   42.8420   33.5190 N.pl3  67  ARG67       0.1354
     97  NH2      -15.6960   41.6350   31.6050 N.pl3  67  ARG67       0.1354
     98  N         -8.8830   39.5060   37.2080 N.am   68  PRO68      -0.2727
     99  CA        -8.3700   39.0190   38.4620 C.3    68  PRO68       0.1402
    100  C         -9.5050   38.7970   39.4500 C.2    68  PRO68       0.2269
    101  O        -10.5530   39.4300   39.3400 O.2    68  PRO68      -0.2865
    102  CB        -7.4980   40.1690   38.9400 C.3    68  PRO68       0.0296
    103  CG        -8.2610   41.4000   38.4470 C.3    68  PRO68       0.0237
    104  CD        -8.7700   40.9790   37.1010 C.3    68  PRO68       0.0939
@<TRIPOS>BOND
     1    64    62    1
     2    62    61    1
     3    85    86   ar
     4    85    83   ar
     5    63    61    1
     6    86    84   ar
     7    83    82   ar
     8    61    58    1
     9    84    82   ar
    10    82    81    1
    11    58    57    1
    12    58    59    1
    13    81    78    1
    14    59    65   am
    15    59    60    2
    16    97    95    1
    17    78    77    1
    18    78    79    1
    19    65    66    1
    20    68    67    2
    21    77    67   am
    22    80    79    2
    23    67    66    1
    24    95    94    2
    25    95    96    1
    26    79    87   am
    27    66    69    1
    28    94    93    1
    29    71    73   ar
    30    71    70   ar
    31    73    75   ar
    32    69    70    1
    33    87    88    1
    34    92    93    1
    35    92    91    1
    36    70    72   ar
    37    75    76    1
    38    75    74   ar
    39    88    91    1
    40    88    89    1
    41    72    74   ar
    42    44    43    1
    43    41    43   ar
    44    41    39   ar
    45    89    90    2
    46    89    98   am
    47    43    42   ar
    48    39    38   ar
    49   104    98    1
    50   104   103    1
    51    98    99    1
    52    42    40   ar
    53    38    40   ar
    54    38    37    1
    55   103   102    1
    56    99   102    1
    57    99   100    1
    58    53    51   ar
    59    53    55   ar
    60    51    50   ar
    61    56    55    1
    62    55    54   ar
    63    50    49    1
    64    50    52   ar
    65    49    46    1
    66    54    52   ar
    67   101   100    2
    68    37    34    1
    69     9     7   am
    70    34    35    1
    71    34    33    1
    72    36    35    2
    73    17    15    1
    74    48    47    2
    75     8     7    2
    76    47    46    1
    77    46    45    1
    78     7     6    1
    79    33    25   am
    80    21    20    2
    81    25    26    2
    82    25    24    1
    83    15    14    1
    84    16    14    1
    85     6     5    1
    86    14    11    1
    87    24    23    1
    88    24    27    1
    89    20    23   am
    90    20    19    1
    91     5     2    1
    92    22    19    1
    93    27    28    1
    94    18    19    1
    95    18    12   am
    96     4     3    2
    97    11    12    1
    98    11    10    1
    99    12    13    2
   100     2     3    1
   101     2     1    1
   102    29    28   ar
   103    29    31   ar
   104    28    30   ar
   105    31    32   ar
   106    30    32   ar
