@<TRIPOS>MOLECULE
tmp/2gf6A00.pdb
 132 128 0 0 0
SMALL
GASTEIGER

@<TRIPOS>ATOM
      1  N         -7.1380   25.8250   40.7530 N.3    28  TYR28      -0.1241
      2  CA        -7.2130   24.3780   40.9570 C.3    28  TYR28       0.1605
      3  C         -8.0580   24.0670   42.1620 C.2    28  TYR28       0.2264
      4  O         -8.7760   23.0790   42.1800 O.2    28  TYR28      -0.2867
      5  CB        -5.8020   23.8130   41.1540 C.3    28  TYR28       0.0534
      6  CG        -5.6840   22.3040   41.4670 C.ar   28  TYR28      -0.0201
      7  CD1       -5.7030   21.3520   40.4530 C.ar   28  TYR28      -0.0009
      8  CD2       -5.5130   21.8550   42.7640 C.ar   28  TYR28      -0.0009
      9  CE1       -5.5920   19.9940   40.7390 C.ar   28  TYR28       0.0417
     10  CE2       -5.4150   20.5130   43.0600 C.ar   28  TYR28       0.0417
     11  CZ        -5.4400   19.5840   42.0520 C.ar   28  TYR28       0.1957
     12  OH        -5.2860   18.2200   42.3460 O.3    28  TYR28      -0.2866
     13  N         -6.5970   10.9070   36.8310 N.3    57  VAL57      -0.1231
     14  CA        -5.3870   11.7200   36.8010 C.3    57  VAL57       0.1692
     15  C         -5.4560   12.7020   35.6550 C.2    57  VAL57       0.2592
     16  O         -5.9030   12.3340   34.5720 O.2    57  VAL57      -0.2718
     17  CB        -4.0650   10.8600   36.7230 C.3    57  VAL57       0.0266
     18  CG1       -4.0250    9.8210   37.8560 C.3    57  VAL57       0.0020
     19  CG2       -3.8670   10.1980   35.3730 C.3    57  VAL57       0.0020
     20  N         -4.9750   13.9350   35.8930 N.am   58  ILE58      -0.1966
     21  CA        -4.9800   15.0220   34.8990 C.3    58  ILE58       0.1727
     22  C         -3.9260   14.7980   33.8020 C.2    58  ILE58       0.2616
     23  O         -2.7490   14.5680   34.0890 O.2    58  ILE58      -0.2715
     24  CB        -4.7180   16.3990   35.5830 C.3    58  ILE58       0.0290
     25  CG1       -5.7920   16.6940   36.6280 C.3    58  ILE58       0.0022
     26  CG2       -4.6690   17.5550   34.5790 C.3    58  ILE58       0.0023
     27  CD1       -5.3940   17.7360   37.6300 C.3    58  ILE58       0.0001
     28  N         -4.3760   14.8480   32.5500 N.am   59  ALA59      -0.1963
     29  CA        -3.5240   14.7170   31.3820 C.3    59  ALA59       0.1728
     30  C         -3.1930   16.0400   30.7540 C.2    59  ALA59       0.2616
     31  O         -2.2330   16.1530   29.9920 O.2    59  ALA59      -0.2715
     32  CB        -4.2310   13.8760   30.3800 C.3    59  ALA59       0.0334
     33  N         -4.0190   17.0500   31.0080 N.am   60  GLU60      -0.1977
     34  CA        -3.8230   18.3070   30.3310 C.3    60  GLU60       0.1602
     35  C         -4.6260   19.3360   31.0460 C.2    60  GLU60       0.2287
     36  O         -5.7270   19.0290   31.5000 O.2    60  GLU60      -0.2864
     37  CB        -4.2950   18.2150   28.8680 C.3    60  GLU60       0.0415
     38  CG        -4.0770   19.5340   28.1270 C.3    60  GLU60       0.1163
     39  CD        -4.4130   19.4810   26.6700 C.2    60  GLU60       0.3649
     40  OE1       -4.6050   18.3380   26.1720 O.co2  60  GLU60      -0.2457
     41  OE2       -4.4820   20.5950   26.0510 O.co2  60  GLU60      -0.2457
     42  N        -15.0230   12.4120   26.1960 N.3    84  LEU84      -0.1231
     43  CA       -14.2260   12.1780   24.9650 C.3    84  LEU84       0.1693
     44  C        -14.0830   10.7110   24.5470 C.2    84  LEU84       0.2593
     45  O        -13.9010   10.4040   23.3590 O.2    84  LEU84      -0.2718
     46  CB       -12.8270   12.7710   25.1070 C.3    84  LEU84       0.0284
     47  CG       -12.7630   14.2030   25.6320 C.3    84  LEU84       0.0019
     48  CD1      -11.3260   14.6830   25.5700 C.3    84  LEU84       0.0001
     49  CD2      -13.6610   15.0980   24.8550 C.3    84  LEU84       0.0001
     50  N        -14.1650    9.8080   25.5040 N.am   85  SER85      -0.1938
     51  CA       -14.0000    8.4050   25.2150 C.3    85  SER85       0.2055
     52  C        -14.5620    7.5240   26.3370 C.2    85  SER85       0.2643
     53  O        -15.1280    8.0190   27.3180 O.2    85  SER85      -0.2714
     54  CB       -12.5120    8.1060   24.9930 C.3    85  SER85       0.2130
     55  OG       -11.7780    8.2150   26.1920 O.3    85  SER85      -0.2179
     56  N        -14.3500    6.2180   26.2130 N.am   86  ASN86      -0.1957
     57  CA       -14.6440    5.2830   27.3010 C.3    86  ASN86       0.1819
     58  C        -13.7790    5.4980   28.5530 C.2    86  ASN86       0.2621
     59  O        -13.9880    4.8430   29.5690 O.2    86  ASN86      -0.2715
     60  CB       -14.5890    3.8050   26.8100 C.3    86  ASN86       0.1195
     61  CG       -13.1780    3.3230   26.4240 C.2    86  ASN86       0.2630
     62  OD1      -12.3530    4.0820   26.0010 O.2    86  ASN86      -0.2716
     63  ND2      -12.9500    2.0370   26.5230 N.am   86  ASN86      -0.0877
     64  N        -12.8460    6.4450   28.5140 N.am   87  LYS87      -0.1963
     65  CA       -11.9390    6.6200   29.6270 C.3    87  LYS87       0.1728
     66  C        -11.4490    8.0170   29.9390 C.2    87  LYS87       0.2616
     67  O        -10.7660    8.1820   30.9430 O.2    87  LYS87      -0.2715
     68  CB       -10.7190    5.7060   29.4460 C.3    87  LYS87       0.0311
     69  CG        -9.8970    5.9500   28.2320 C.3    87  LYS87       0.0038
     70  CD        -8.6940    5.0080   28.1760 C.3    87  LYS87       0.0206
     71  CE        -9.0790    3.5690   27.9960 C.3    87  LYS87       0.1093
     72  NZ        -7.8540    2.7040   27.7750 N.3    87  LYS87      -0.1314
     73  N        -11.8080    9.0050   29.1170 N.am   88  THR88      -0.1951
     74  CA       -11.3190   10.3760   29.2600 C.3    88  THR88       0.1897
     75  C        -12.4860   11.3800   29.2670 C.2    88  THR88       0.2313
     76  O        -13.4500   11.2350   28.5040 O.2    88  THR88      -0.2863
     77  CB       -10.4290   10.7200   28.0910 C.3    88  THR88       0.1794
     78  OG1       -9.3140    9.8310   28.0800 O.3    88  THR88      -0.2208
     79  CG2       -9.9370   12.0900   28.2270 C.3    88  THR88       0.0378
     80  N         -8.4290   17.9030   31.4960 N.3   108  ILE108     -0.1245
     81  CA        -8.7510   16.6410   30.9410 C.3   108  ILE108      0.1561
     82  C         -8.2880   15.5610   31.8890 C.2   108  ILE108      0.2260
     83  O         -7.1360   15.5000   32.2870 O.2   108  ILE108     -0.2867
     84  CB        -8.1210   16.5310   29.5750 C.3   108  ILE108      0.0252
     85  CG1       -8.8410   17.5240   28.6530 C.3   108  ILE108      0.0019
     86  CG2       -8.1120   15.0690   29.1090 C.3   108  ILE108      0.0019
     87  CD1       -8.4360   17.4920   27.2510 C.3   108  ILE108      0.0001
     88  N         -8.2370   11.3630   32.9450 N.3   110  ILE110     -0.1245
     89  CA        -8.2130   10.0200   32.4220 C.3   110  ILE110      0.1561
     90  C         -8.3490    9.0670   33.5880 C.2   110  ILE110      0.2260
     91  O         -7.7120    9.2460   34.6130 O.2   110  ILE110     -0.2867
     92  CB        -6.9000    9.7640   31.6180 C.3   110  ILE110      0.0252
     93  CG1       -6.7210   10.8170   30.5190 C.3   110  ILE110      0.0019
     94  CG2       -6.8750    8.3780   30.9910 C.3   110  ILE110      0.0019
     95  CD1       -5.4320   10.6590   29.7630 C.3   110  ILE110      0.0001
     96  N         -7.5830    5.6110   35.2990 N.3   112  ILE112     -0.1245
     97  CA        -6.4680    4.6750   35.2860 C.3   112  ILE112      0.1561
     98  C         -6.5520    3.5910   36.3400 C.2   112  ILE112      0.2260
     99  O         -7.2100    3.7550   37.3620 O.2   112  ILE112     -0.2867
    100  CB        -5.0870    5.4020   35.4340 C.3   112  ILE112      0.0252
    101  CG1       -4.8990    6.0030   36.8450 C.3   112  ILE112      0.0019
    102  CG2       -4.9520    6.4480   34.3970 C.3   112  ILE112      0.0019
    103  CD1       -3.4560    6.4220   37.1560 C.3   112  ILE112      0.0001
    104  N         -0.5000    1.5240   36.5550 N.3   117  TRP117     -0.1227
    105  CA        -0.3690    2.8510   35.9810 C.3   117  TRP117      0.1737
    106  C         -0.6200    2.9460   34.4390 C.2   117  TRP117      0.2595
    107  O          0.1170    3.6040   33.7120 O.2   117  TRP117     -0.2718
    108  CB         0.9790    3.4790   36.3890 C.3   117  TRP117      0.0564
    109  CG         0.8710    4.9740   36.3980 C.ar  117  TRP117      0.0003
    110  CD1        1.1740    5.7910   35.3810 C.ar  117  TRP117      0.0946
    111  CD2        0.3430    5.8120   37.4510 C.ar  117  TRP117      0.0152
    112  NE1        0.8950    7.1010   35.7180 N.ar  117  TRP117     -0.2442
    113  CE2        0.3730    7.1340   36.9790 C.ar  117  TRP117      0.0810
    114  CE3       -0.1480    5.5680   38.7440 C.ar  117  TRP117      0.0012
    115  CZ2       -0.0450    8.2110   37.7510 C.ar  117  TRP117      0.0191
    116  CZ3       -0.5680    6.6540   39.5140 C.ar  117  TRP117      0.0001
    117  CH2       -0.5150    7.9450   39.0160 C.ar  117  TRP117      0.0015
    118  N         -1.6920    2.3110   33.9690 N.am  118  LYS118     -0.1966
    119  CA        -2.1540    2.4430   32.5760 C.3   118  LYS118      0.1728
    120  C         -3.6220    2.8520   32.6190 C.2   118  LYS118      0.2616
    121  O         -4.3180    2.5750   33.5810 O.2   118  LYS118     -0.2715
    122  CB        -2.0930    1.1200   31.7940 C.3   118  LYS118      0.0311
    123  CG        -0.7390    0.4880   31.4610 C.3   118  LYS118      0.0038
    124  CD         0.4140    1.4770   31.3660 C.3   118  LYS118      0.0206
    125  CE         1.7440    0.7580   30.9760 C.3   118  LYS118      0.1093
    126  NZ         1.7190   -0.7490   31.1210 N.3   118  LYS118     -0.1314
    127  N         -4.0890    3.4770   31.5500 N.am  119  SER119     -0.1950
    128  CA        -5.4380    4.0240   31.5240 C.3   119  SER119      0.1924
    129  C         -6.3540    2.8160   31.4300 C.2   119  SER119      0.2314
    130  O         -5.8900    1.7570   31.0520 O.2   119  SER119     -0.2863
    131  CB        -5.6240    4.9900   30.3500 C.3   119  SER119      0.2116
    132  OG        -5.4490    4.3510   29.1010 O.3   119  SER119     -0.2180
@<TRIPOS>BOND
     1    45    44    2
     2    44    43    1
     3    44    50   am
     4    49    47    1
     5    43    46    1
     6    43    42    1
     7    54    51    1
     8    54    55    1
     9    46    47    1
    10    51    50    1
    11    51    52    1
    12    48    47    1
    13    62    61    2
    14    41    39   ar
    15    40    39   ar
    16    56    52   am
    17    56    57    1
    18    52    53    2
    19    61    63   am
    20    61    60    1
    21    39    38    1
    22    60    57    1
    23    87    85    1
    24    57    58    1
    25    72    71    1
    26    71    70    1
    27    78    77    1
    28    77    79    1
    29    77    74    1
    30    38    37    1
    31    70    69    1
    32    69    68    1
    33    76    75    2
    34    64    58   am
    35    64    65    1
    36    58    59    2
    37    85    84    1
    38    37    34    1
    39   132   131    1
    40    86    84    1
    41    73    74    1
    42    73    66   am
    43    74    75    1
    44    68    65    1
    45    84    81    1
    46    65    66    1
    47    95    93    1
    48    66    67    2
    49    31    30    2
    50    34    33    1
    51    34    35    1
    52   131   128    1
    53    32    29    1
    54    93    92    1
    55    30    33   am
    56    30    29    1
    57    81    80    1
    58    81    82    1
    59   125   126    1
    60   125   124    1
    61    94    92    1
    62    35    36    2
    63   130   129    2
    64   124   123    1
    65    29    28    1
    66   129   128    1
    67   123   122    1
    68   128   127    1
    69   127   120   am
    70    92    89    1
    71   122   119    1
    72    82    83    2
    73    89    88    1
    74    89    90    1
    75    28    22   am
    76   119   120    1
    77   119   118    1
    78   120   121    2
    79    90    91    2
    80   107   106    2
    81    22    23    2
    82    22    21    1
    83   118   106   am
    84   102   100    1
    85   106   105    1
    86    16    15    2
    87    26    24    1
    88    21    24    1
    89    21    20    1
    90    97    96    1
    91    97   100    1
    92    97    98    1
    93    19    17    1
    94   110   112   ar
    95   110   109   ar
    96   100   101    1
    97    24    25    1
    98    15    20   am
    99    15    14    1
   100   112   113   ar
   101   105   108    1
   102   105   104    1
   103    98    99    2
   104   108   109    1
   105   109   111   ar
   106    25    27    1
   107    17    14    1
   108    17    18    1
   109    14    13    1
   110   101   103    1
   111   113   111   ar
   112   113   115   ar
   113   111   114   ar
   114   115   117   ar
   115   114   116   ar
   116   117   116   ar
   117     7     9   ar
   118     7     6   ar
   119     9    11   ar
   120     1     2    1
   121     2     5    1
   122     2     3    1
   123     5     6    1
   124     6     8   ar
   125    11    12    1
   126    11    10   ar
   127     3     4    2
   128     8    10   ar
