@<TRIPOS>MOLECULE
tmp/2gfaA00.pdb
 152 152 0 0 0
SMALL
GASTEIGER

@<TRIPOS>ATOM
      1  N         33.4580   25.8430  -13.1590 N.3    33  PHE33      -0.1241
      2  CA        33.3550   24.5340  -13.7860 C.3    33  PHE33       0.1605
      3  C         34.5100   23.6580  -13.3050 C.2    33  PHE33       0.2264
      4  O         35.5880   24.1590  -12.9750 O.2    33  PHE33      -0.2867
      5  CB        33.4030   24.6520  -15.3120 C.3    33  PHE33       0.0534
      6  CG        32.2770   25.4530  -15.8940 C.ar   33  PHE33      -0.0203
      7  CD1       32.3010   26.8410  -15.8560 C.ar   33  PHE33      -0.0042
      8  CD2       31.1760   24.8180  -16.4570 C.ar   33  PHE33      -0.0042
      9  CE1       31.2370   27.5880  -16.3720 C.ar   33  PHE33      -0.0003
     10  CE2       30.1060   25.5520  -16.9740 C.ar   33  PHE33      -0.0003
     11  CZ        30.1370   26.9390  -16.9300 C.ar   33  PHE33      -0.0000
     12  N         38.3960   11.0290  -16.6490 N.3    38  PHE38      -0.1241
     13  CA        37.6630    9.8290  -16.2470 C.3    38  PHE38       0.1605
     14  C         38.5640    8.6010  -16.3300 C.2    38  PHE38       0.2264
     15  O         39.5360    8.5930  -17.0860 O.2    38  PHE38      -0.2867
     16  CB        36.4280    9.6280  -17.1310 C.3    38  PHE38       0.0534
     17  CG        35.3710   10.6810  -16.9520 C.ar   38  PHE38      -0.0203
     18  CD1       35.2790   11.7540  -17.8320 C.ar   38  PHE38      -0.0042
     19  CD2       34.4650   10.6020  -15.8960 C.ar   38  PHE38      -0.0042
     20  CE1       34.2980   12.7280  -17.6630 C.ar   38  PHE38      -0.0003
     21  CE2       33.4850   11.5710  -15.7220 C.ar   38  PHE38      -0.0003
     22  CZ        33.4010   12.6340  -16.6040 C.ar   38  PHE38      -0.0000
     23  N         38.0010    5.9230  -17.7120 N.3    40  ASP40      -0.1225
     24  CA        37.8890    5.3680  -19.0570 C.3    40  ASP40       0.1805
     25  C         38.7920    6.0720  -20.0740 C.2    40  ASP40       0.2598
     26  O         38.7760    5.7270  -21.2570 O.2    40  ASP40      -0.2718
     27  CB        36.4420    5.4500  -19.5300 C.3    40  ASP40       0.1424
     28  CG        36.1250    6.7760  -20.1630 C.2    40  ASP40       0.3668
     29  OD1       36.7950    7.7680  -19.8110 O.co2  40  ASP40      -0.2456
     30  OD2       35.2090    6.8330  -21.0080 O.co2  40  ASP40      -0.2456
     31  N         39.5480    7.0730  -19.6270 N.am   41  GLY41      -0.1942
     32  CA        40.4500    7.7730  -20.5360 C.3    41  GLY41       0.2014
     33  C         39.9550    9.0620  -21.1850 C.2    41  GLY41       0.2640
     34  O         40.7270    9.7750  -21.8330 O.2    41  GLY41      -0.2714
     35  N         38.6700    9.3580  -21.0270 N.am   42  SER42      -0.1935
     36  CA        38.0960   10.5720  -21.5900 C.3    42  SER42       0.2055
     37  C         38.2240   11.6540  -20.5330 C.2    42  SER42       0.2643
     38  O         38.7310   11.4080  -19.4420 O.2    42  SER42      -0.2714
     39  CB        36.6170   10.3600  -21.9070 C.3    42  SER42       0.2130
     40  OG        35.8970   10.0440  -20.7180 O.3    42  SER42      -0.2179
     41  N         37.7610   12.8540  -20.8490 N.am   43  PHE43      -0.1959
     42  CA        37.8260   13.9280  -19.8720 C.3    43  PHE43       0.1771
     43  C         36.7750   14.9740  -20.1730 C.2    43  PHE43       0.2620
     44  O         36.3150   15.1070  -21.3050 O.2    43  PHE43      -0.2715
     45  CB        39.2260   14.5680  -19.8570 C.3    43  PHE43       0.0574
     46  CG        39.4510   15.5880  -20.9480 C.ar   43  PHE43      -0.0200
     47  CD1       39.2030   16.9400  -20.7190 C.ar   43  PHE43      -0.0042
     48  CD2       39.8960   15.1960  -22.2040 C.ar   43  PHE43      -0.0042
     49  CE1       39.3930   17.8860  -21.7250 C.ar   43  PHE43      -0.0003
     50  CE2       40.0900   16.1330  -23.2200 C.ar   43  PHE43      -0.0003
     51  CZ        39.8360   17.4810  -22.9790 C.ar   43  PHE43      -0.0000
     52  N         36.3830   15.6940  -19.1340 N.am   44  SER44      -0.1936
     53  CA        35.4210   16.7710  -19.2590 C.3    44  SER44       0.2055
     54  C         35.9740   17.9480  -18.4740 C.2    44  SER44       0.2643
     55  O         36.5350   17.7720  -17.3910 O.2    44  SER44      -0.2714
     56  CB        34.0620   16.3720  -18.6840 C.3    44  SER44       0.2130
     57  OG        33.2200   17.5020  -18.5990 O.3    44  SER44      -0.2179
     58  N         35.8210   19.1460  -19.0260 N.am   45  ASP45      -0.1957
     59  CA        36.3010   20.3400  -18.3530 C.3    45  ASP45       0.1840
     60  C         35.1430   21.2940  -18.0850 C.2    45  ASP45       0.2622
     61  O         35.3610   22.4490  -17.7160 O.2    45  ASP45      -0.2715
     62  CB        37.3710   21.0380  -19.2030 C.3    45  ASP45       0.1450
     63  CG        36.8500   21.4920  -20.5590 C.2    45  ASP45       0.3671
     64  OD1       37.6740   21.9050  -21.4030 O.co2  45  ASP45      -0.2456
     65  OD2       35.6280   21.4480  -20.7930 O.co2  45  ASP45      -0.2456
     66  N         33.9170   20.8040  -18.2680 N.am   46  ASN46      -0.1958
     67  CA        32.7260   21.6190  -18.0540 C.3    46  ASN46       0.1819
     68  C         31.6380   21.0060  -17.1590 C.2    46  ASN46       0.2621
     69  O         30.4470   21.1180  -17.4400 O.2    46  ASN46      -0.2715
     70  CB        32.1160   22.0190  -19.4000 C.3    46  ASN46       0.1195
     71  CG        31.9840   20.8480  -20.3540 C.2    46  ASN46       0.2630
     72  OD1       31.8990   19.6940  -19.9390 O.2    46  ASN46      -0.2716
     73  ND2       31.9450   21.1470  -21.6440 N.am   46  ASN46      -0.0877
     74  N         32.0560   20.3560  -16.0820 N.am   47  LEU47      -0.1963
     75  CA        31.1210   19.7830  -15.1200 C.3    47  LEU47       0.1728
     76  C         30.8480   20.8840  -14.0900 C.2    47  LEU47       0.2616
     77  O         31.5970   21.8560  -14.0130 O.2    47  LEU47      -0.2715
     78  CB        31.7570   18.5810  -14.4130 C.3    47  LEU47       0.0311
     79  CG        32.0890   17.3380  -15.2440 C.3    47  LEU47       0.0022
     80  CD1       32.9590   16.3820  -14.4410 C.3    47  LEU47       0.0001
     81  CD2       30.7910   16.6650  -15.6630 C.3    47  LEU47       0.0001
     82  N         29.7700   20.7550  -13.3250 N.am   48  TYR48      -0.1974
     83  CA        29.4800   21.7320  -12.2800 C.3    48  TYR48       0.1639
     84  C         29.8100   21.0300  -10.9700 C.2    48  TYR48       0.2290
     85  O         29.7750   19.8100  -10.9020 O.2    48  TYR48      -0.2864
     86  CB        28.0050   22.1610  -12.2950 C.3    48  TYR48       0.0560
     87  CG        27.5820   22.9000  -13.5480 C.ar   48  TYR48      -0.0198
     88  CD1       26.9520   22.2290  -14.5990 C.ar   48  TYR48      -0.0009
     89  CD2       27.8370   24.2640  -13.6950 C.ar   48  TYR48      -0.0009
     90  CE1       26.5860   22.8990  -15.7690 C.ar   48  TYR48       0.0417
     91  CE2       27.4790   24.9440  -14.8590 C.ar   48  TYR48       0.0417
     92  CZ        26.8560   24.2540  -15.8920 C.ar   48  TYR48       0.1957
     93  OH        26.5220   24.9180  -17.0490 O.3    48  TYR48      -0.2866
     94  N         28.1530   20.4960   -8.5720 N.3    50  GLU50      -0.1231
     95  CA        27.0070   19.6730   -8.2110 C.3    50  GLU50       0.1699
     96  C         27.0460   18.3030   -8.8780 C.2    50  GLU50       0.2592
     97  O         26.1980   17.4610   -8.6100 O.2    50  GLU50      -0.2718
     98  CB        25.7010   20.3860   -8.5760 C.3    50  GLU50       0.0402
     99  CG        25.4020   21.6380   -7.7590 C.3    50  GLU50       0.1161
    100  CD        26.4150   22.7530   -7.9750 C.2    50  GLU50       0.3649
    101  OE1       26.6690   23.1190   -9.1430 O.co2  50  GLU50      -0.2457
    102  OE2       26.9500   23.2640   -6.9710 O.co2  50  GLU50      -0.2457
    103  N         28.0330   18.0770   -9.7400 N.am   51  ASP51      -0.1974
    104  CA        28.1520   16.7960  -10.4190 C.3    51  ASP51       0.1709
    105  C         29.0880   15.8140   -9.7080 C.2    51  ASP51       0.2293
    106  O         29.2690   14.6910  -10.1680 O.2    51  ASP51      -0.2864
    107  CB        28.6210   16.9870  -11.8670 C.3    51  ASP51       0.1436
    108  CG        27.5870   17.6970  -12.7350 C.2    51  ASP51       0.3671
    109  OD1       26.3810   17.4190  -12.5840 O.co2  51  ASP51      -0.2456
    110  OD2       27.9830   18.5230  -13.5810 O.co2  51  ASP51      -0.2456
    111  N         27.1970   11.5820  -14.0410 N.3    66  TRP66      -0.1227
    112  CA        27.1040   12.0000  -15.4360 C.3    66  TRP66       0.1737
    113  C         25.6650   12.2870  -15.8620 C.2    66  TRP66       0.2596
    114  O         24.7260   12.0780  -15.0970 O.2    66  TRP66      -0.2718
    115  CB        27.7140   10.9210  -16.3460 C.3    66  TRP66       0.0564
    116  CG        27.9540   11.3740  -17.7550 C.ar   66  TRP66       0.0003
    117  CD1       27.4510   10.8120  -18.8940 C.ar   66  TRP66       0.0946
    118  CD2       28.7800   12.4680  -18.1790 C.ar   66  TRP66       0.0152
    119  NE1       27.9140   11.4870  -20.0030 N.ar   66  TRP66      -0.2442
    120  CE2       28.7310   12.5070  -19.5930 C.ar   66  TRP66       0.0810
    121  CE3       29.5570   13.4190  -17.5010 C.ar   66  TRP66       0.0012
    122  CZ2       29.4320   13.4610  -20.3450 C.ar   66  TRP66       0.0191
    123  CZ3       30.2560   14.3700  -18.2520 C.ar   66  TRP66       0.0001
    124  CH2       30.1850   14.3800  -19.6600 C.ar   66  TRP66       0.0015
    125  N         25.5020   12.7590  -17.0930 N.am   67  THR67      -0.1953
    126  CA        24.1840   13.1000  -17.6190 C.3    67  THR67       0.1897
    127  C         23.2610   11.9020  -17.7940 C.2    67  THR67       0.2313
    128  O         22.0620   12.0700  -18.0040 O.2    67  THR67      -0.2863
    129  CB        24.2990   13.8170  -18.9760 C.3    67  THR67       0.1794
    130  OG1       25.1450   13.0500  -19.8390 O.3    67  THR67      -0.2208
    131  CG2       24.8780   15.2130  -18.8040 C.3    67  THR67       0.0378
    132  N         30.4880    7.7310  -12.4460 N.3    72  TYR72      -0.1241
    133  CA        31.7690    7.3010  -13.0020 C.3    72  TYR72       0.1605
    134  C         32.9210    7.7720  -12.1320 C.2    72  TYR72       0.2264
    135  O         32.8510    8.8340  -11.5210 O.2    72  TYR72      -0.2867
    136  CB        31.9560    7.8430  -14.4180 C.3    72  TYR72       0.0534
    137  CG        30.9190    7.3700  -15.4090 C.ar   72  TYR72      -0.0201
    138  CD1       29.6160    7.8630  -15.3700 C.ar   72  TYR72      -0.0009
    139  CD2       31.2440    6.4430  -16.3980 C.ar   72  TYR72      -0.0009
    140  CE1       28.6610    7.4490  -16.2960 C.ar   72  TYR72       0.0417
    141  CE2       30.2970    6.0210  -17.3280 C.ar   72  TYR72       0.0417
    142  CZ        29.0110    6.5280  -17.2720 C.ar   72  TYR72       0.1957
    143  OH        28.0820    6.1330  -18.1920 O.3    72  TYR72      -0.2866
    144  N         26.8870   33.3480  -20.9320 N.3    98  LYS98      -0.1245
    145  CA        28.2910   33.6430  -21.1420 C.3    98  LYS98       0.1561
    146  C         28.4450   34.8060  -22.1060 C.2    98  LYS98       0.2260
    147  O         27.4990   35.2420  -22.7620 O.2    98  LYS98      -0.2867
    148  CB        29.0380   32.4250  -21.6970 C.3    98  LYS98       0.0271
    149  CG        29.3400   31.3540  -20.6690 C.3    98  LYS98       0.0035
    150  CD        30.1400   30.2170  -21.2960 C.3    98  LYS98       0.0206
    151  CE        30.6150   29.2040  -20.2540 C.3    98  LYS98       0.1093
    152  NZ        31.4050   28.1050  -20.8780 N.3    98  LYS98      -0.1314
@<TRIPOS>BOND
     1    50    51   ar
     2    50    48   ar
     3    51    49   ar
     4   147   146    2
     5    48    46   ar
     6   146   145    1
     7    39    36    1
     8    39    40    1
     9    34    33    2
    10    49    47   ar
    11   148   145    1
    12   148   149    1
    13    73    71   am
    14    36    35    1
    15    36    37    1
    16    64    63   ar
    17    44    43    2
    18   150   149    1
    19   150   151    1
    20    26    25    2
    21    33    35   am
    22    33    32    1
    23   145   144    1
    24    30    28   ar
    25    46    47   ar
    26    46    45    1
    27   152   151    1
    28    41    37   am
    29    41    42    1
    30    65    63   ar
    31    63    62    1
    32    32    31    1
    33    37    38    2
    34    71    72    2
    35    71    70    1
    36   122   124   ar
    37   122   120   ar
    38    43    42    1
    39    43    52   am
    40    28    29   ar
    41    28    27    1
    42    25    31   am
    43    25    24    1
    44   119   120   ar
    45   119   117   ar
    46    42    45    1
    47   130   129    1
    48   124   123   ar
    49   120   118   ar
    50    27    24    1
    51    70    67    1
    52    53    52    1
    53    53    56    1
    54    53    54    1
    55    62    59    1
    56    24    23    1
    57    58    54   am
    58    58    59    1
    59   129   131    1
    60   129   126    1
    61   117   116   ar
    62    56    57    1
    63    54    55    2
    64    59    60    1
    65    66    60   am
    66    66    67    1
    67   123   121   ar
    68   143   142    1
    69   118   116   ar
    70   118   121   ar
    71    60    61    2
    72    67    68    1
    73   128   127    2
    74    18    20   ar
    75    18    17   ar
    76   127   126    1
    77   116   115    1
    78    20    22   ar
    79   126   125    1
    80    69    68    2
    81   141   142   ar
    82   141   139   ar
    83   142   140   ar
    84    68    74   am
    85    16    17    1
    86    16    13    1
    87   125   113   am
    88    15    14    2
    89    93    92    1
    90    10    11   ar
    91    10     8   ar
    92    17    19   ar
    93    11     9   ar
    94    12    13    1
    95    22    21   ar
    96     8     6   ar
    97   139   137   ar
    98     9     7   ar
    99   115   112    1
   100    14    13    1
   101   140   138   ar
   102    74    75    1
   103    19    21   ar
   104     6     7   ar
   105     6     5    1
   106    92    90   ar
   107    92    91   ar
   108   113   112    1
   109   113   114    2
   110    90    88   ar
   111    81    79    1
   112   112   111    1
   113   137   138   ar
   114   137   136    1
   115     5     2    1
   116    79    80    1
   117    79    78    1
   118    75    78    1
   119    75    76    1
   120    91    89   ar
   121    88    87   ar
   122   136   133    1
   123    76    77    2
   124    76    82   am
   125     2     3    1
   126     2     1    1
   127    89    87   ar
   128   110   108   ar
   129    87    86    1
   130    82    83    1
   131     3     4    2
   132   133   132    1
   133   133   134    1
   134   108   109   ar
   135   108   107    1
   136    86    83    1
   137    83    84    1
   138   134   135    2
   139   107   104    1
   140    84    85    2
   141   104   103    1
   142   104   105    1
   143   106   105    2
   144   103    96   am
   145   101   100   ar
   146    96    97    2
   147    96    95    1
   148    98    95    1
   149    98    99    1
   150    94    95    1
   151   100    99    1
   152   100   102   ar
