@<TRIPOS>MOLECULE
tmp/2gfdB00.pdb
 181 170 0 0 0
SMALL
GASTEIGER

@<TRIPOS>ATOM
      1  N       -139.9200  -33.1840   74.5890 N.3    12  MET12      -0.1245
      2  CA      -140.6150  -32.5300   75.6900 C.3    12  MET12       0.1570
      3  C       -139.6660  -31.6340   76.4880 C.2    12  MET12       0.2261
      4  O       -140.0210  -30.5020   76.8160 O.2    12  MET12      -0.2867
      5  CB      -141.2780  -33.5750   76.5970 C.3    12  MET12       0.0387
      6  CG      -142.2280  -33.0000   77.6390 C.3    12  MET12       0.0595
      7  SD      -143.3610  -34.2580   78.3210 S.3    12  MET12      -0.1393
      8  CE      -142.2570  -35.2290   79.3170 C.3    12  MET12       0.0692
      9  N       -141.3380  -28.8810   91.5040 N.3    31  LEU31      -0.1245
     10  CA      -140.7100  -29.8250   92.4250 C.3    31  LEU31       0.1561
     11  C       -141.5670  -30.0060   93.6720 C.2    31  LEU31       0.2260
     12  O       -141.7850  -31.1280   94.1210 O.2    31  LEU31      -0.2867
     13  CB      -139.2970  -29.3540   92.8140 C.3    31  LEU31       0.0270
     14  CG      -138.2390  -29.4840   91.7050 C.3    31  LEU31       0.0019
     15  CD1     -136.9540  -28.7560   92.0890 C.3    31  LEU31       0.0001
     16  CD2     -137.9580  -30.9560   91.4530 C.3    31  LEU31       0.0001
     17  N       -144.6660  -31.9830   92.7520 N.3    34  ASN34      -0.1225
     18  CA      -144.4240  -33.4170   92.5820 C.3    34  ASN34       0.1785
     19  C       -144.2120  -34.0400   93.9590 C.2    34  ASN34       0.2597
     20  O       -144.6300  -35.1680   94.2180 O.2    34  ASN34      -0.2718
     21  CB      -143.2040  -33.6770   91.6830 C.3    34  ASN34       0.1169
     22  CG      -143.5270  -33.5290   90.1970 C.2    34  ASN34       0.2627
     23  OD1     -144.6890  -33.5300   89.7970 O.2    34  ASN34      -0.2716
     24  ND2     -142.4950  -33.4220   89.3760 N.am   34  ASN34      -0.0877
     25  N       -143.5730  -33.2970   94.8500 N.am   35  ALA35      -0.1979
     26  CA      -143.3690  -33.7940   96.1990 C.3    35  ALA35       0.1597
     27  C       -144.7410  -34.0560   96.8430 C.2    35  ALA35       0.2287
     28  O       -144.9450  -35.0850   97.4860 O.2    35  ALA35      -0.2864
     29  CB      -142.5920  -32.7760   97.0180 C.3    35  ALA35       0.0319
     30  N       -147.6350  -34.7150   95.3580 N.3    37  ASP37      -0.1225
     31  CA      -148.3170  -35.8450   94.7410 C.3    37  ASP37       0.1805
     32  C       -147.8110  -37.1630   95.3240 C.2    37  ASP37       0.2597
     33  O       -148.5920  -38.0870   95.5700 O.2    37  ASP37      -0.2718
     34  CB      -148.0830  -35.8630   93.2300 C.3    37  ASP37       0.1424
     35  CG      -148.8240  -34.7650   92.5090 C.2    37  ASP37       0.3668
     36  OD1     -148.5300  -34.5590   91.3090 O.co2  37  ASP37      -0.2456
     37  OD2     -149.6990  -34.1140   93.1260 O.co2  37  ASP37      -0.2456
     38  N       -146.5000  -37.2440   95.5190 N.am   38  ALA38      -0.1979
     39  CA      -145.8770  -38.4370   96.0620 C.3    38  ALA38       0.1597
     40  C       -146.3470  -38.6450   97.4890 C.2    38  ALA38       0.2287
     41  O       -146.5040  -39.7860   97.9460 O.2    38  ALA38      -0.2864
     42  CB      -144.3580  -38.3020   96.0320 C.3    38  ALA38       0.0319
     43  N       -149.8560  -40.0880   97.4290 N.3    41  LYS41      -0.1245
     44  CA      -149.8470  -41.5000   97.0700 C.3    41  LYS41       0.1561
     45  C       -149.6110  -42.4360   98.2540 C.2    41  LYS41       0.2260
     46  O       -150.3620  -43.3870   98.4550 O.2    41  LYS41      -0.2867
     47  CB      -148.7940  -41.7790   95.9930 C.3    41  LYS41       0.0271
     48  CG      -149.1400  -41.2000   94.6310 C.3    41  LYS41       0.0035
     49  CD      -148.5060  -42.0160   93.5130 C.3    41  LYS41       0.0206
     50  CE      -148.7630  -41.3860   92.1590 C.3    41  LYS41       0.1093
     51  NZ      -148.0190  -40.1030   92.0380 N.3    41  LYS41      -0.1314
     52  N       -138.7000  -35.2840  100.0820 N.3    76  ASP76      -0.1239
     53  CA      -140.0480  -35.6020  100.5300 C.3    76  ASP76       0.1674
     54  C       -140.0920  -37.0520  100.9910 C.2    76  ASP76       0.2266
     55  O       -139.2720  -37.8680  100.5660 O.2    76  ASP76      -0.2867
     56  CB      -141.0740  -35.3840   99.4020 C.3    76  ASP76       0.1410
     57  CG      -140.9590  -36.4100   98.2820 C.2    76  ASP76       0.3668
     58  OD1     -141.2040  -37.6150   98.5330 O.co2  76  ASP76      -0.2456
     59  OD2     -140.6340  -36.0120   97.1400 O.co2  76  ASP76      -0.2456
     60  N       -144.1420  -41.8380   98.5460 N.3    79  VAL79      -0.1231
     61  CA      -144.0440  -43.2550   98.2140 C.3    79  VAL79       0.1692
     62  C       -142.7030  -43.7030   97.6230 C.2    79  VAL79       0.2593
     63  O       -142.3590  -44.8950   97.6550 O.2    79  VAL79      -0.2718
     64  CB      -145.1580  -43.6320   97.2070 C.3    79  VAL79       0.0266
     65  CG1     -145.0150  -42.7860   95.9480 C.3    79  VAL79       0.0020
     66  CG2     -145.0880  -45.1160   96.8540 C.3    79  VAL79       0.0020
     67  N       -141.9570  -42.7610   97.0600 N.am   80  GLY80      -0.1942
     68  CA      -140.6860  -43.1110   96.4550 C.3    80  GLY80       0.2014
     69  C       -140.8630  -43.8700   95.1470 C.2    80  GLY80       0.2638
     70  O       -141.9920  -44.0750   94.6840 O.2    80  GLY80      -0.2714
     71  N       -139.7460  -44.2870   94.5500 N.am   81  MET81      -0.1976
     72  CA      -139.7660  -45.0220   93.2910 C.3    81  MET81       0.1605
     73  C       -138.7840  -46.1880   93.2820 C.2    81  MET81       0.2287
     74  O       -137.6660  -46.0760   93.7740 O.2    81  MET81      -0.2864
     75  CB      -139.4080  -44.0990   92.1170 C.3    81  MET81       0.0413
     76  CG      -140.4450  -43.0280   91.7810 C.3    81  MET81       0.0598
     77  SD      -139.8510  -41.8340   90.5380 S.3    81  MET81      -0.1393
     78  CE      -138.9170  -40.7390   91.5730 C.3    81  MET81       0.0692
     79  N       -140.5510  -43.9410   84.6760 N.3    89  ASN89      -0.1225
     80  CA      -141.1580  -42.6370   84.9350 C.3    89  ASN89       0.1785
     81  C       -140.3760  -41.4260   84.4540 C.2    89  ASN89       0.2597
     82  O       -140.9690  -40.4290   84.0360 O.2    89  ASN89      -0.2718
     83  CB      -141.4010  -42.4610   86.4310 C.3    89  ASN89       0.1169
     84  CG      -142.5290  -43.3150   86.9470 C.2    89  ASN89       0.2627
     85  OD1     -142.8730  -44.3410   86.3550 O.2    89  ASN89      -0.2716
     86  ND2     -143.1010  -42.9090   88.0740 N.am   89  ASN89      -0.0877
     87  N       -139.0510  -41.4950   84.5230 N.am   90  LEU90      -0.1980
     88  CA      -138.2360  -40.3520   84.1330 C.3    90  LEU90       0.1596
     89  C       -137.5910  -40.4270   82.7500 C.2    90  LEU90       0.2287
     90  O       -137.2440  -39.3950   82.1750 O.2    90  LEU90      -0.2864
     91  CB      -137.1620  -40.1080   85.1970 C.3    90  LEU90       0.0297
     92  CG      -137.6320  -40.1460   86.6570 C.3    90  LEU90       0.0022
     93  CD1     -136.4480  -39.8320   87.5770 C.3    90  LEU90       0.0001
     94  CD2     -138.7730  -39.1480   86.8790 C.3    90  LEU90       0.0001
     95  N       -139.0350  -42.3430   80.0580 N.3    92  THR92      -0.1203
     96  CA      -140.0450  -42.5900   79.0310 C.3    92  THR92       0.1994
     97  C       -141.2920  -41.7990   79.4000 C.2    92  THR92       0.2618
     98  O       -141.3400  -41.1680   80.4540 O.2    92  THR92      -0.2717
     99  CB      -140.4380  -44.0800   78.9530 C.3    92  THR92       0.1784
    100  OG1     -141.3780  -44.3800   79.9930 O.3    92  THR92      -0.2211
    101  CG2     -139.2130  -44.9660   79.1140 C.3    92  THR92       0.0376
    102  N       -142.2990  -41.8360   78.5350 N.am   93  ILE93      -0.1965
    103  CA      -143.5500  -41.1280   78.7910 C.3    93  ILE93       0.1727
    104  C       -144.7410  -41.8300   78.1420 C.2    93  ILE93       0.2616
    105  O       -144.6130  -42.4400   77.0800 O.2    93  ILE93      -0.2715
    106  CB      -143.4950  -39.6760   78.2700 C.3    93  ILE93       0.0290
    107  CG1     -144.8000  -38.9540   78.6120 C.3    93  ILE93       0.0022
    108  CG2     -143.2930  -39.6690   76.7590 C.3    93  ILE93       0.0023
    109  CD1     -144.7610  -37.4580   78.3790 C.3    93  ILE93       0.0001
    110  N       -145.8980  -41.7360   78.7930 N.am   94  ALA94      -0.1977
    111  CA      -147.1310  -42.3420   78.2940 C.3    94  ALA94       0.1597
    112  C       -148.3450  -41.5120   78.7140 C.2    94  ALA94       0.2287
    113  O       -148.9120  -40.7710   77.9100 O.2    94  ALA94      -0.2864
    114  CB      -147.2650  -43.7640   78.8190 C.3    94  ALA94       0.0319
    115  N       -150.4860  -31.6570   82.7860 N.3   116  PHE116     -0.1227
    116  CA      -150.0670  -32.9380   82.2350 C.3   116  PHE116      0.1736
    117  C       -149.2100  -33.7150   83.2250 C.2   116  PHE116      0.2596
    118  O       -149.1160  -34.9390   83.1460 O.2   116  PHE116     -0.2718
    119  CB      -149.3000  -32.7130   80.9290 C.3   116  PHE116      0.0547
    120  CG      -149.2680  -33.9130   80.0260 C.ar  116  PHE116     -0.0202
    121  CD1     -150.4530  -34.5480   79.6510 C.ar  116  PHE116     -0.0042
    122  CD2     -148.0560  -34.4100   79.5450 C.ar  116  PHE116     -0.0042
    123  CE1     -150.4330  -35.6620   78.8090 C.ar  116  PHE116     -0.0003
    124  CE2     -148.0210  -35.5240   78.7030 C.ar  116  PHE116     -0.0003
    125  CZ      -149.2140  -36.1510   78.3350 C.ar  116  PHE116     -0.0000
    126  N       -148.5840  -33.0030   84.1570 N.am  117  GLY117     -0.1942
    127  CA      -147.7530  -33.6620   85.1520 C.3   117  GLY117      0.2014
    128  C       -146.2860  -33.8520   84.7910 C.2   117  GLY117      0.2638
    129  O       -145.5930  -34.6520   85.4250 O.2   117  GLY117     -0.2714
    130  N       -145.7980  -33.1230   83.7890 N.am  118  VAL118     -0.1977
    131  CA      -144.4000  -33.2590   83.3760 C.3   118  VAL118      0.1596
    132  C       -143.4940  -32.1190   83.8600 C.2   118  VAL118      0.2287
    133  O       -142.5480  -31.7490   83.1790 O.2   118  VAL118     -0.2864
    134  CB      -144.2870  -33.3560   81.8280 C.3   118  VAL118      0.0276
    135  CG1     -144.8720  -34.6820   81.3370 C.3   118  VAL118      0.0022
    136  CG2     -145.0110  -32.1810   81.1840 C.3   118  VAL118      0.0022
    137  N       -141.2710  -32.0610   86.2350 N.3   120  PHE120     -0.1227
    138  CA      -139.9380  -32.4770   86.6340 C.3   120  PHE120      0.1736
    139  C       -138.8710  -31.9170   85.7050 C.2   120  PHE120      0.2595
    140  O       -137.8540  -31.3700   86.1470 O.2   120  PHE120     -0.2718
    141  CB      -139.8440  -34.0020   86.6170 C.3   120  PHE120      0.0547
    142  CG      -138.4410  -34.5310   86.7870 C.ar  120  PHE120     -0.0202
    143  CD1     -137.7960  -34.4610   88.0200 C.ar  120  PHE120     -0.0042
    144  CD2     -137.7790  -35.1280   85.7180 C.ar  120  PHE120     -0.0042
    145  CE1     -136.5110  -34.9910   88.1900 C.ar  120  PHE120     -0.0003
    146  CE2     -136.4960  -35.6560   85.8780 C.ar  120  PHE120     -0.0003
    147  CZ      -135.8640  -35.5890   87.1200 C.ar  120  PHE120     -0.0000
    148  N       -139.1180  -32.0580   84.4110 N.am  121  TYR121     -0.1976
    149  CA      -138.1760  -31.6230   83.3970 C.3   121  TYR121      0.1639
    150  C       -137.8450  -30.1310   83.3900 C.2   121  TYR121      0.2290
    151  O       -136.8470  -29.7300   82.7880 O.2   121  TYR121     -0.2864
    152  CB      -138.6720  -32.0950   82.0220 C.3   121  TYR121      0.0560
    153  CG      -138.8210  -33.6010   81.9680 C.ar  121  TYR121     -0.0198
    154  CD1     -137.6980  -34.4320   81.9510 C.ar  121  TYR121     -0.0009
    155  CD2     -140.0800  -34.2010   81.9710 C.ar  121  TYR121     -0.0009
    156  CE1     -137.8230  -35.8120   81.9400 C.ar  121  TYR121      0.0417
    157  CE2     -140.2170  -35.5880   81.9620 C.ar  121  TYR121      0.0417
    158  CZ      -139.0850  -36.3900   81.9470 C.ar  121  TYR121      0.1957
    159  OH      -139.2060  -37.7680   81.9420 O.3   121  TYR121     -0.2866
    160  N       -131.6670  -37.8580   91.2270 N.3   132  VAL132     -0.1245
    161  CA      -132.8460  -38.3220   91.9460 C.3   132  VAL132      0.1561
    162  C       -132.5140  -39.5830   92.7520 C.2   132  VAL132      0.2260
    163  O       -132.2390  -40.6380   92.1880 O.2   132  VAL132     -0.2867
    164  CB      -134.0200  -38.6070   90.9610 C.3   132  VAL132      0.0252
    165  CG1     -135.2440  -39.1140   91.7070 C.3   132  VAL132      0.0019
    166  CG2     -134.3800  -37.3330   90.2170 C.3   132  VAL132      0.0019
    167  N       -138.0730  -39.4850   98.3990 N.3   166  THR166     -0.1218
    168  CA      -137.2560  -39.0250   97.3020 C.3   166  THR166      0.1862
    169  C       -136.5450  -37.7090   97.5450 C.2   166  THR166      0.2287
    170  O       -137.0950  -36.7830   98.1420 O.2   166  THR166     -0.2866
    171  CB      -138.1210  -38.8230   96.0320 C.3   166  THR166      0.1770
    172  OG1     -138.7210  -40.0680   95.6510 O.3   166  THR166     -0.2211
    173  CG2     -137.2720  -38.2770   94.8820 C.3   166  THR166      0.0375
    174  N       -134.5460  -34.8060   95.3320 N.3   168  ILE168     -0.1245
    175  CA      -134.2210  -34.2650   94.0180 C.3   168  ILE168      0.1561
    176  C       -133.0690  -33.2990   94.2990 C.2   168  ILE168      0.2260
    177  O       -133.2460  -32.3020   94.9990 O.2   168  ILE168     -0.2867
    178  CB      -135.3920  -33.4390   93.4200 C.3   168  ILE168      0.0252
    179  CG1     -136.6730  -34.2790   93.3680 C.3   168  ILE168      0.0019
    180  CG2     -135.0090  -32.9330   92.0210 C.3   168  ILE168      0.0019
    181  CD1     -136.6760  -35.3350   92.3070 C.3   168  ILE168      0.0001
@<TRIPOS>BOND
     1     1     2    1
     2     2     3    1
     3     2     5    1
     4     3     4    2
     5     5     6    1
     6   108   106    1
     7   105   104    2
     8     6     7    1
     9   113   112    2
    10   104   103    1
    11   104   110   am
    12   106   107    1
    13   106   103    1
    14   111   112    1
    15   111   110    1
    16   111   114    1
    17     7     8    1
    18   125   124   ar
    19   125   123   ar
    20   109   107    1
    21   102   103    1
    22   102    97   am
    23   124   122   ar
    24   123   121   ar
    25    99    96    1
    26    99   101    1
    27    99   100    1
    28    96    97    1
    29    96    95    1
    30    97    98    2
    31   122   120   ar
    32   121   120   ar
    33   120   119    1
    34   119   116    1
    35   136   134    1
    36   135   134    1
    37   134   131    1
    38   156   158   ar
    39   156   154   ar
    40   159   158    1
    41   158   157   ar
    42   154   153   ar
    43   157   155   ar
    44   153   155   ar
    45   153   152    1
    46   152   149    1
    47    90    89    2
    48   116   115    1
    49   116   117    1
    50    89    88    1
    51   151   150    2
    52   118   117    2
    53   133   132    2
    54   117   126   am
    55   131   130    1
    56   131   132    1
    57   150   149    1
    58   149   148    1
    59   130   128   am
    60    82    81    2
    61    88    87    1
    62    88    91    1
    63   126   127    1
    64   148   139   am
    65    81    87   am
    66    81    80    1
    67    79    80    1
    68   128   127    1
    69   128   129    2
    70    80    83    1
    71    91    92    1
    72   139   140    2
    73   139   138    1
    74   144   146   ar
    75   144   142   ar
    76   146   147   ar
    77   137   138    1
    78    85    84    2
    79    83    84    1
    80   141   138    1
    81   141   142    1
    82    92    94    1
    83    92    93    1
    84   142   143   ar
    85    84    86   am
    86   147   145   ar
    87   143   145   ar
    88    24    22   am
    89    23    22    2
    90    22    21    1
    91   166   164    1
    92    77    78    1
    93    77    76    1
    94   164   165    1
    95   164   161    1
    96   160   161    1
    97    36    35   ar
    98    16    14    1
    99     9    10    1
   100    21    18    1
   101    14    15    1
   102    14    13    1
   103    76    75    1
   104   161   162    1
   105   180   178    1
   106    51    50    1
   107    75    72    1
   108    50    49    1
   109   163   162    2
   110   181   179    1
   111    10    13    1
   112    10    11    1
   113    35    37   ar
   114    35    34    1
   115    18    17    1
   116    18    19    1
   117    34    31    1
   118    73    72    1
   119    73    74    2
   120    72    71    1
   121   179   178    1
   122   178   175    1
   123    49    48    1
   124    11    12    2
   125    19    20    2
   126    19    25   am
   127   175   176    1
   128   175   174    1
   129   176   177    2
   130    71    69   am
   131    48    47    1
   132    70    69    2
   133    31    32    1
   134    31    30    1
   135    25    26    1
   136   173   171    1
   137    69    68    1
   138    32    38   am
   139    32    33    2
   140    38    39    1
   141   172   171    1
   142    65    64    1
   143    47    44    1
   144    42    39    1
   145   171   168    1
   146    39    40    1
   147    26    27    1
   148    26    29    1
   149    68    67    1
   150    27    28    2
   151    66    64    1
   152    67    62   am
   153    44    43    1
   154    44    45    1
   155    59    57   ar
   156    64    61    1
   157   168   169    1
   158   168   167    1
   159    40    41    2
   160   169   170    2
   161    62    63    2
   162    62    61    1
   163    61    60    1
   164    45    46    2
   165    57    58   ar
   166    57    56    1
   167    56    53    1
   168    52    53    1
   169    53    54    1
   170    55    54    2
