@<TRIPOS>MOLECULE
tmp/2gfiA00.pdb
 86 79 0 0 0
SMALL
GASTEIGER

@<TRIPOS>ATOM
      1  N         48.3300   90.5930   19.7400 N.3   304  VAL304     -0.1245
      2  CA        48.3860   91.3880   18.4970 C.3   304  VAL304      0.1561
      3  C         48.0490   90.5240   17.2840 C.2   304  VAL304      0.2260
      4  O         47.2660   90.9430   16.4390 O.2   304  VAL304     -0.2867
      5  CB        49.7290   92.1610   18.2620 C.3   304  VAL304      0.0252
      6  CG1       50.9020   91.2200   18.0800 C.3   304  VAL304      0.0019
      7  CG2       49.6000   93.0320   17.0000 C.3   304  VAL304      0.0019
      8  N         44.3100   89.3880   17.2510 N.3   307  SER307     -0.1202
      9  CA        43.4240   90.5320   17.0300 C.3   307  SER307      0.2020
     10  C         43.1310   90.7800   15.5710 C.2   307  SER307      0.2619
     11  O         42.1730   91.4880   15.2550 O.2   307  SER307     -0.2717
     12  CB        44.0170   91.8130   17.6290 C.3   307  SER307      0.2103
     13  OG        44.0870   91.7230   19.0320 O.3   307  SER307     -0.2182
     14  N         43.9480   90.2180   14.6860 N.am  308  THR308     -0.1952
     15  CA        43.7140   90.3870   13.2670 C.3   308  THR308      0.1897
     16  C         42.4260   89.7090   12.8760 C.2   308  THR308      0.2313
     17  O         41.5560   90.3540   12.2470 O.2   308  THR308     -0.2863
     18  CB        44.9150   89.9250   12.3780 C.3   308  THR308      0.1794
     19  OG1       45.1970   88.5430   12.6160 O.3   308  THR308     -0.2208
     20  CG2       46.1890   90.6230   12.7910 C.3   308  THR308      0.0378
     21  N         39.3490   91.3890   14.8040 N.3   311  ASN311     -0.1240
     22  CA        38.9180   92.5980   14.0430 C.3   311  ASN311      0.1653
     23  C         38.1110   92.2800   12.7970 C.2   311  ASN311      0.2266
     24  O         37.0440   92.8580   12.5740 O.2   311  ASN311     -0.2867
     25  CB        40.1360   93.4160   13.6100 C.3   311  ASN311      0.1155
     26  CG        40.6770   94.3070   14.7120 C.2   311  ASN311      0.2627
     27  OD1       40.0330   94.4790   15.7520 O.2   311  ASN311     -0.2716
     28  ND2       41.8640   94.9010   14.4680 N.am  311  ASN311     -0.0877
     29  N         34.7900   90.9590   13.5810 N.3   314  LEU314     -0.1245
     30  CA        33.9520   92.0760   14.0250 C.3   314  LEU314      0.1561
     31  C         33.4730   92.9200   12.8400 C.2   314  LEU314      0.2260
     32  O         32.2960   93.2790   12.7940 O.2   314  LEU314     -0.2867
     33  CB        34.6730   92.9380   15.0720 C.3   314  LEU314      0.0270
     34  CG        33.8710   94.1770   15.5060 C.3   314  LEU314      0.0019
     35  CD1       32.6590   93.7720   16.3100 C.3   314  LEU314      0.0001
     36  CD2       34.7390   95.1750   16.2650 C.3   314  LEU314      0.0001
     37  N         37.0010   96.2090   20.9200 N.3   420  ALA420     -0.1245
     38  CA        37.8770   97.3800   21.0380 C.3   420  ALA420      0.1562
     39  C         38.8160   97.2770   22.2470 C.2   420  ALA420      0.2260
     40  O         39.9980   97.5540   22.1250 O.2   420  ALA420     -0.2867
     41  CB        37.0590   98.6880   21.0750 C.3   420  ALA420      0.0290
     42  N         41.4640   94.5520   21.4880 N.3   423  VAL423     -0.1245
     43  CA        42.4590   94.8950   20.4600 C.3   423  VAL423      0.1561
     44  C         43.1690   96.2110   20.7330 C.2   423  VAL423      0.2260
     45  O         44.0940   96.5760   20.0070 O.2   423  VAL423     -0.2867
     46  CB        41.8440   94.8880   19.0480 C.3   423  VAL423      0.0252
     47  CG1       41.1160   93.5540   18.7870 C.3   423  VAL423      0.0019
     48  CG2       40.9210   96.1210   18.8240 C.3   423  VAL423      0.0019
     49  N         46.9050   97.5130   19.8590 N.3   426  THR426     -0.1203
     50  CA        47.5590   96.5520   18.9780 C.3   426  THR426      0.1994
     51  C         47.7840   97.1540   17.6090 C.2   426  THR426      0.2618
     52  O         47.0020   97.9750   17.1230 O.2   426  THR426     -0.2717
     53  CB        46.7860   95.1920   18.8390 C.3   426  THR426      0.1784
     54  OG1       45.4750   95.4370   18.3210 O.3   426  THR426     -0.2211
     55  CG2       46.5730   94.5250   20.1950 C.3   426  THR426      0.0376
     56  N         48.8510   96.6950   16.9820 N.am  427  ASN427     -0.1960
     57  CA        49.2530   97.1650   15.6910 C.3   427  ASN427      0.1819
     58  C         50.0870   96.0680   15.1150 C.2   427  ASN427      0.2621
     59  O         51.2280   95.8630   15.5240 O.2   427  ASN427     -0.2715
     60  CB        50.0830   98.4550   15.8250 C.3   427  ASN427      0.1195
     61  CG        50.5750   98.9870   14.4800 C.2   427  ASN427      0.2630
     62  OD1       50.5190   98.2970   13.4360 O.2   427  ASN427     -0.2716
     63  ND2       51.0720  100.2380   14.4960 N.am  427  ASN427     -0.0877
     64  N         49.5160   95.3740   14.1470 N.am  428  TYR428     -0.1974
     65  CA        50.1880   94.2650   13.5340 C.3   428  TYR428      0.1639
     66  C         51.5270   94.6330   12.8980 C.2   428  TYR428      0.2290
     67  O         52.5530   94.0300   13.2340 O.2   428  TYR428     -0.2864
     68  CB        49.2830   93.6100   12.5010 C.3   428  TYR428      0.0560
     69  CG        49.8470   92.3220   11.9750 C.ar  428  TYR428     -0.0198
     70  CD1       49.6770   91.1230   12.6810 C.ar  428  TYR428     -0.0009
     71  CD2       50.5710   92.2970   10.7780 C.ar  428  TYR428     -0.0009
     72  CE1       50.1950   89.9290   12.1930 C.ar  428  TYR428      0.0417
     73  CE2       51.0920   91.1170   10.2830 C.ar  428  TYR428      0.0417
     74  CZ        50.9010   89.9240   10.9980 C.ar  428  TYR428      0.1957
     75  OH        51.4050   88.7390   10.5100 O.3   428  TYR428     -0.2866
     76  N         48.2340   94.7290    6.3480 N.3   438  SER438     -0.1202
     77  CA        48.1610   95.1850    7.7250 C.3   438  SER438      0.2020
     78  C         46.8830   94.6780    8.3810 C.2   438  SER438      0.2618
     79  O         46.7440   94.7040    9.6050 O.2   438  SER438     -0.2717
     80  CB        48.2110   96.7160    7.7990 C.3   438  SER438      0.2103
     81  OG        47.0540   97.2710    7.2060 O.3   438  SER438     -0.2182
     82  N         45.9560   94.2210    7.5460 N.am  439  ALA439     -0.1979
     83  CA        44.6560   93.7800    8.0010 C.3   439  ALA439      0.1597
     84  C         44.1720   92.6630    7.0900 C.2   439  ALA439      0.2287
     85  O         44.7210   92.4550    5.9960 O.2   439  ALA439     -0.2864
     86  CB        43.6650   94.9670    8.0090 C.3   439  ALA439      0.0319
@<TRIPOS>BOND
     1    85    84    2
     2    76    77    1
     3    84    83    1
     4    81    80    1
     5    82    83    1
     6    82    78   am
     7    77    80    1
     8    77    78    1
     9    83    86    1
    10    78    79    2
    11    73    71   ar
    12    73    74   ar
    13    75    74    1
    14    71    69   ar
    15    74    72   ar
    16    69    68    1
    17    69    70   ar
    18    72    70   ar
    19    17    16    2
    20    18    19    1
    21    18    20    1
    22    18    15    1
    23    68    65    1
    24    24    23    2
    25    32    31    2
    26    23    22    1
    27    31    30    1
    28    16    15    1
    29    66    67    2
    30    66    65    1
    31    15    14    1
    32    62    61    2
    33    65    64    1
    34    29    30    1
    35    25    22    1
    36    25    26    1
    37    30    33    1
    38    22    21    1
    39    64    58   am
    40    28    26   am
    41    61    63   am
    42    61    60    1
    43    14    10   am
    44    26    27    2
    45    33    34    1
    46    58    59    2
    47    58    57    1
    48    11    10    2
    49    34    36    1
    50    34    35    1
    51    10     9    1
    52    57    60    1
    53    57    56    1
    54     4     3    2
    55    56    51   am
    56     7     5    1
    57     9     8    1
    58     9    12    1
    59    52    51    2
    60     3     2    1
    61    51    50    1
    62    12    13    1
    63     6     5    1
    64     5     2    1
    65    54    53    1
    66     2     1    1
    67    47    46    1
    68    48    46    1
    69    53    50    1
    70    53    55    1
    71    50    49    1
    72    46    43    1
    73    45    44    2
    74    43    44    1
    75    43    42    1
    76    37    38    1
    77    38    41    1
    78    38    39    1
    79    40    39    2
