@<TRIPOS>MOLECULE
tmp/2gfjB00.pdb
 149 147 0 0 0
SMALL
GASTEIGER

@<TRIPOS>ATOM
      1  N         14.5000   23.8640   12.0040 N.3    10  TYR10      -0.1227
      2  CA        14.7160   23.4490   10.6120 C.3    10  TYR10       0.1736
      3  C         15.5280   22.1420   10.6680 C.2    10  TYR10       0.2596
      4  O         16.6190   22.0870   11.2730 O.2    10  TYR10      -0.2718
      5  CB        15.4000   24.5370    9.7760 C.3    10  TYR10       0.0548
      6  CG        16.5550   25.2530   10.4750 C.ar   10  TYR10      -0.0200
      7  CD1       17.8710   24.8700   10.2480 C.ar   10  TYR10      -0.0009
      8  CD2       16.3180   26.3260   11.3650 C.ar   10  TYR10      -0.0009
      9  CE1       18.9380   25.5370   10.8710 C.ar   10  TYR10       0.0417
     10  CE2       17.3640   26.9960   12.0060 C.ar   10  TYR10       0.0417
     11  CZ        18.6800   26.6060   11.7590 C.ar   10  TYR10       0.1957
     12  OH        19.7480   27.2510   12.3880 O.3    10  TYR10      -0.2866
     13  N         14.9340   21.0980   10.0940 N.am   11  THR11      -0.1939
     14  CA        15.5550   19.7810   10.0200 C.3    11  THR11       0.2028
     15  C         16.0920   19.5160    8.5780 C.2    11  THR11       0.2642
     16  O         15.5820   20.0780    7.5920 O.2    11  THR11      -0.2714
     17  CB        14.5550   18.7040   10.4250 C.3    11  THR11       0.1808
     18  OG1       13.4770   18.7160    9.4970 O.3    11  THR11      -0.2208
     19  CG2       13.9960   18.9530   11.8480 C.3    11  THR11       0.0379
     20  N         17.1320   18.6850    8.4710 N.am   12  VAL12      -0.1977
     21  CA        17.8500   18.4410    7.1990 C.3    12  VAL12       0.1596
     22  C         18.1050   16.9250    7.0240 C.2    12  VAL12       0.2287
     23  O         18.0450   16.1650    7.9980 O.2    12  VAL12      -0.2864
     24  CB        19.2220   19.1970    7.1710 C.3    12  VAL12       0.0276
     25  CG1       19.0170   20.7270    7.3050 C.3    12  VAL12       0.0022
     26  CG2       20.1000   18.7320    8.2970 C.3    12  VAL12       0.0022
     27  N         23.5170   15.3990    5.5010 N.3    16  TRP16      -0.1241
     28  CA        24.0250   16.7610    5.7930 C.3    16  TRP16       0.1605
     29  C         24.6910   16.8680    7.1820 C.2    16  TRP16       0.2264
     30  O         25.4970   17.7860    7.4310 O.2    16  TRP16      -0.2867
     31  CB        22.8910   17.7960    5.7290 C.3    16  TRP16       0.0550
     32  CG        22.2220   18.0270    4.3940 C.ar   16  TRP16       0.0003
     33  CD1       21.9960   17.1070    3.3840 C.ar   16  TRP16       0.0946
     34  CD2       21.5980   19.2460    3.9620 C.ar   16  TRP16       0.0152
     35  NE1       21.3060   17.6930    2.3460 N.ar   16  TRP16      -0.2442
     36  CE2       21.0460   19.0020    2.6690 C.ar   16  TRP16       0.0810
     37  CE3       21.4680   20.5340    4.5330 C.ar   16  TRP16       0.0012
     38  CZ2       20.3890   20.0030    1.9300 C.ar   16  TRP16       0.0191
     39  CZ3       20.8100   21.5230    3.8070 C.ar   16  TRP16       0.0001
     40  CH2       20.2690   21.2480    2.5200 C.ar   16  TRP16       0.0015
     41  N         26.2360   23.4580    9.3800 N.3    55  MET55      -0.1245
     42  CA        25.1040   23.6890   10.2640 C.3    55  MET55       0.1570
     43  C         25.5460   24.0310   11.6850 C.2    55  MET55       0.2261
     44  O         26.6920   23.8240   12.1180 O.2    55  MET55      -0.2867
     45  CB        24.2270   22.4350   10.2940 C.3    55  MET55       0.0387
     46  CG        23.3210   22.2250    9.0530 C.3    55  MET55       0.0595
     47  SD        21.7720   23.1250    9.1510 S.3    55  MET55      -0.1393
     48  CE        20.8270   22.2010   10.4120 C.3    55  MET55       0.0692
     49  N         27.9840   32.1730    1.8770 N.3    83  HIS83      -0.1241
     50  CA        26.8850   33.0690    2.3000 C.3    83  HIS83       0.1621
     51  C         26.4610   32.8320    3.7360 C.2    83  HIS83       0.2264
     52  O         26.6490   31.7490    4.2770 O.2    83  HIS83      -0.2867
     53  CB        25.6750   33.0570    1.3420 C.3    83  HIS83       0.0745
     54  CG        24.9190   31.7630    1.2740 C.ar   83  HIS83       0.0817
     55  ND1       25.3460   30.6720    0.5320 N.ar   83  HIS83      -0.2268
     56  CD2       23.7260   31.4100    1.8120 C.ar   83  HIS83       0.1154
     57  CE1       24.4590   29.6930    0.6330 C.ar   83  HIS83       0.1986
     58  NE2       23.4540   30.1200    1.3950 N.ar   83  HIS83      -0.2212
     59  N         23.7780   31.9580    5.5010 N.3    85  HIS85      -0.1226
     60  CA        22.6360   31.1280    5.9420 C.3    85  HIS85       0.1752
     61  C         23.0310   30.0860    7.0080 C.2    85  HIS85       0.2596
     62  O         24.1880   29.6960    7.0930 O.2    85  HIS85      -0.2718
     63  CB        21.9140   30.3950    4.7640 C.3    85  HIS85       0.0759
     64  CG        20.9300   31.2520    4.0150 C.ar   85  HIS85       0.0818
     65  ND1       20.5140   30.9510    2.7370 N.ar   85  HIS85      -0.2268
     66  CD2       20.3250   32.4250    4.3330 C.ar   85  HIS85       0.1154
     67  CE1       19.6820   31.8770    2.3070 C.ar   85  HIS85       0.1986
     68  NE2       19.5400   32.7800    3.2620 N.ar   85  HIS85      -0.2212
     69  N         22.0420   29.5920    7.7640 N.am   86  ALA86      -0.1966
     70  CA        22.2730   28.6450    8.8580 C.3    86  ALA86       0.1728
     71  C         23.0760   27.3710    8.4820 C.2    86  ALA86       0.2616
     72  O         23.7540   26.7630    9.3250 O.2    86  ALA86      -0.2715
     73  CB        20.9110   28.2160    9.4590 C.3    86  ALA86       0.0334
     74  N         22.9330   26.9430    7.2310 N.am   87  ASP87      -0.1957
     75  CA        23.5010   25.6730    6.7990 C.3    87  ASP87       0.1840
     76  C         24.9560   25.7800    6.3170 C.2    87  ASP87       0.2622
     77  O         25.5830   24.7330    6.0080 O.2    87  ASP87      -0.2715
     78  CB        22.5650   24.9690    5.8060 C.3    87  ASP87       0.1450
     79  CG        22.2820   25.7870    4.5360 C.2    87  ASP87       0.3671
     80  OD1       22.3080   27.0580    4.5770 O.co2  87  ASP87      -0.2456
     81  OD2       22.0080   25.1370    3.4850 O.co2  87  ASP87      -0.2456
     82  N         25.4930   27.0180    6.3010 N.am   88  HIS88      -0.1973
     83  CA        26.8990   27.2600    5.9750 C.3    88  HIS88       0.1656
     84  C         27.6810   28.0600    7.0210 C.2    88  HIS88       0.2291
     85  O         28.9030   27.8470    7.2030 O.2    88  HIS88      -0.2864
     86  CB        27.0020   27.8920    4.5660 C.3    88  HIS88       0.0771
     87  CG        26.1090   27.2290    3.5790 C.ar   88  HIS88       0.0820
     88  ND1       26.3390   25.9510    3.1130 N.ar   88  HIS88      -0.2267
     89  CD2       24.9490   27.6370    3.0130 C.ar   88  HIS88       0.1154
     90  CE1       25.3630   25.6110    2.2880 C.ar   88  HIS88       0.1986
     91  NE2       24.5170   26.6310    2.1920 N.ar   88  HIS88      -0.2212
     92  N         13.0370   33.8480    3.6410 N.3   123  PHE123     -0.1241
     93  CA        12.7190   32.8570    4.6840 C.3   123  PHE123      0.1605
     94  C         12.1630   33.4940    5.9770 C.2   123  PHE123      0.2264
     95  O         11.8210   32.7770    6.9230 O.2   123  PHE123     -0.2867
     96  CB        13.9650   32.0550    5.0800 C.3   123  PHE123      0.0534
     97  CG        14.4900   31.1010    4.0150 C.ar  123  PHE123     -0.0203
     98  CD1       14.0730   29.7860    3.9740 C.ar  123  PHE123     -0.0042
     99  CD2       15.4920   31.4940    3.1370 C.ar  123  PHE123     -0.0042
    100  CE1       14.6250   28.8830    3.0240 C.ar  123  PHE123     -0.0003
    101  CE2       16.0520   30.6070    2.1780 C.ar  123  PHE123     -0.0003
    102  CZ        15.6250   29.3210    2.1170 C.ar  123  PHE123     -0.0000
    103  N         14.8930   30.4090    9.6660 N.3   127  ILE127     -0.1245
    104  CA        16.2080   29.7580    9.6930 C.3   127  ILE127      0.1561
    105  C         17.2150   30.6340   10.4430 C.2   127  ILE127      0.2260
    106  O         18.1850   31.1150    9.8520 O.2   127  ILE127     -0.2867
    107  CB        16.7370   29.4000    8.2520 C.3   127  ILE127      0.0252
    108  CG1       16.5670   30.5710    7.2600 C.3   127  ILE127      0.0019
    109  CG2       15.9630   28.2050    7.6810 C.3   127  ILE127      0.0019
    110  CD1       17.3400   30.4350    5.8870 C.3   127  ILE127      0.0001
    111  N         21.5260   34.5050   -4.5430 N.3   159  HIS159     -0.1241
    112  CA        21.0430   33.5750   -3.5180 C.3   159  HIS159      0.1621
    113  C         20.8520   34.2770   -2.1440 C.2   159  HIS159      0.2264
    114  O         19.8310   34.0650   -1.4700 O.2   159  HIS159     -0.2867
    115  CB        21.9400   32.3120   -3.4120 C.3   159  HIS159      0.0745
    116  CG        21.4690   31.3350   -2.3850 C.ar  159  HIS159      0.0817
    117  ND1       20.4520   30.4380   -2.6210 N.ar  159  HIS159     -0.2268
    118  CD2       21.8800   31.1120   -1.1150 C.ar  159  HIS159      0.1154
    119  CE1       20.2470   29.7040   -1.5420 C.ar  159  HIS159      0.1986
    120  NE2       21.0990   30.0970   -0.6100 N.ar  159  HIS159     -0.2212
    121  N         26.2530   29.1270   -3.8170 N.3   184  SER184     -0.1217
    122  CA        24.9730   28.6580   -4.3500 C.3   184  SER184      0.1889
    123  C         24.3570   29.6530   -5.3810 C.2   184  SER184      0.2288
    124  O         24.3880   30.8940   -5.1850 O.2   184  SER184     -0.2866
    125  CB        23.9980   28.4250   -3.1780 C.3   184  SER184      0.2089
    126  OG        24.5560   27.5150   -2.2310 O.3   184  SER184     -0.2183
    127  N         20.9800   28.6360   -6.5020 N.3   186  SER186     -0.1217
    128  CA        19.6130   28.2100   -6.2330 C.3   186  SER186      0.1889
    129  C         18.7740   29.4070   -5.7820 C.2   186  SER186      0.2288
    130  O         19.3060   30.4360   -5.3250 O.2   186  SER186     -0.2866
    131  CB        19.6110   27.1040   -5.1710 C.3   186  SER186      0.2089
    132  OG        20.2240   27.5640   -3.9710 O.3   186  SER186     -0.2183
    133  N         15.5720   28.6610   -3.6870 N.3   188  PRO188     -0.2116
    134  CA        14.6440   27.6990   -3.0730 C.3   188  PRO188      0.1372
    135  C         13.3640   28.3600   -2.4950 C.2   188  PRO188      0.2244
    136  O         13.3750   28.9700   -1.4070 O.2   188  PRO188     -0.2868
    137  CB        15.4950   27.0560   -1.9790 C.3   188  PRO188      0.0268
    138  CG        16.4890   28.1230   -1.6120 C.3   188  PRO188      0.0207
    139  CD        16.8480   28.7290   -2.9290 C.3   188  PRO188      0.0892
    140  N         26.8130   23.1150   -1.1530 N.3   224  HIS224     -0.1241
    141  CA        26.0860   21.8390   -1.2770 C.3   224  HIS224      0.1621
    142  C         26.8780   21.0940   -2.3470 C.2   224  HIS224      0.2264
    143  O         26.8690   21.5060   -3.5250 O.2   224  HIS224     -0.2867
    144  CB        24.6250   22.0780   -1.6810 C.3   224  HIS224      0.0745
    145  CG        23.8440   22.8820   -0.6660 C.ar  224  HIS224      0.0817
    146  ND1       23.2580   22.3030    0.4410 N.ar  224  HIS224     -0.2268
    147  CD2       23.6040   24.2170   -0.5590 C.ar  224  HIS224      0.1154
    148  CE1       22.6670   23.2310    1.1690 C.ar  224  HIS224      0.1986
    149  NE2       22.8710   24.4030    0.5940 N.ar  224  HIS224     -0.2212
@<TRIPOS>BOND
     1   127   128    1
     2   128   129    1
     3   128   131    1
     4   129   130    2
     5   123   124    2
     6   123   122    1
     7   131   132    1
     8   111   112    1
     9   122   121    1
    10   122   125    1
    11   133   134    1
    12   133   139    1
    13   143   142    2
    14   112   115    1
    15   112   113    1
    16   115   116    1
    17   125   126    1
    18   134   135    1
    19   134   137    1
    20   139   138    1
    21   117   116   ar
    22   117   119   ar
    23   135   136    2
    24   116   118   ar
    25   142   141    1
    26   113   114    2
    27   137   138    1
    28   144   141    1
    29   144   145    1
    30   119   120   ar
    31   141   140    1
    32   118   120   ar
    33   145   147   ar
    34   145   146   ar
    35   147   149   ar
    36   146   148   ar
    37    55    57   ar
    38    55    54   ar
    39   149   148   ar
    40    57    58   ar
    41    54    53    1
    42    54    56   ar
    43    53    50    1
    44    58    56   ar
    45    49    50    1
    46    38    40   ar
    47    38    36   ar
    48   102   101   ar
    49   102   100   ar
    50   101    99   ar
    51    91    90   ar
    52    91    89   ar
    53    90    88   ar
    54    50    51    1
    55    67    65   ar
    56    67    68   ar
    57    35    36   ar
    58    35    33   ar
    59    40    39   ar
    60    36    34   ar
    61    65    64   ar
    62    89    87   ar
    63   100    98   ar
    64    88    87   ar
    65    99    97   ar
    66    68    66   ar
    67    33    32   ar
    68    81    79   ar
    69    87    86    1
    70    92    93    1
    71    51    52    2
    72    39    37   ar
    73    34    32   ar
    74    34    37   ar
    75    98    97   ar
    76    97    96    1
    77    64    66   ar
    78    64    63    1
    79    32    31    1
    80    79    80   ar
    81    79    78    1
    82    86    83    1
    83    93    96    1
    84    93    94    1
    85    63    60    1
    86    59    60    1
    87    27    28    1
    88    31    28    1
    89    28    29    1
    90    78    75    1
    91   110   108    1
    92    60    61    1
    93    83    82    1
    94    83    84    1
    95    94    95    2
    96    77    76    2
    97    82    76   am
    98    76    75    1
    99    75    74    1
   100    61    62    2
   101    61    69   am
   102    84    85    2
   103    22    21    1
   104    22    23    2
   105    24    21    1
   106    24    25    1
   107    24    26    1
   108    29    30    2
   109    21    20    1
   110    74    71   am
   111   108   107    1
   112    16    15    2
   113   109   107    1
   114    69    70    1
   115   107   104    1
   116    20    15   am
   117    71    70    1
   118    71    72    2
   119    15    14    1
   120    70    73    1
   121    46    47    1
   122    46    45    1
   123    47    48    1
   124    41    42    1
   125    18    17    1
   126   103   104    1
   127   104   105    1
   128     5     6    1
   129     5     2    1
   130   106   105    2
   131    14    13    1
   132    14    17    1
   133    13     3   am
   134     7     6   ar
   135     7     9   ar
   136    42    45    1
   137    42    43    1
   138    17    19    1
   139     6     8   ar
   140     2     3    1
   141     2     1    1
   142     3     4    2
   143     9    11   ar
   144     8    10   ar
   145    43    44    2
   146    11    10   ar
   147    11    12    1
