@<TRIPOS>MOLECULE
tmp/2gfkB00.pdb
 157 155 0 0 0
SMALL
GASTEIGER

@<TRIPOS>ATOM
      1  N         14.3960   23.6430   11.9300 N.3    10  TYR10      -0.1227
      2  CA        14.6130   23.2390   10.5390 C.3    10  TYR10       0.1736
      3  C         15.3840   21.9210   10.5900 C.2    10  TYR10       0.2596
      4  O         16.4680   21.8470   11.1780 O.2    10  TYR10      -0.2718
      5  CB        15.3470   24.3270    9.7190 C.3    10  TYR10       0.0548
      6  CG        16.5010   25.0440   10.4380 C.ar   10  TYR10      -0.0200
      7  CD1       16.2550   26.1010   11.3330 C.ar   10  TYR10      -0.0009
      8  CD2       17.8320   24.6830   10.1980 C.ar   10  TYR10      -0.0009
      9  CE1       17.3010   26.7620   11.9860 C.ar   10  TYR10       0.0417
     10  CE2       18.8860   25.3460   10.8220 C.ar   10  TYR10       0.0417
     11  CZ        18.6150   26.3870   11.7280 C.ar   10  TYR10       0.1957
     12  OH        19.6630   27.0320   12.3750 O.3    10  TYR10      -0.2866
     13  N         14.7830   20.8790   10.0330 N.am   11  THR11      -0.1939
     14  CA        15.3980   19.5550   10.0240 C.3    11  THR11       0.2028
     15  C         15.9330   19.2290    8.6170 C.2    11  THR11       0.2642
     16  O         15.3910   19.6910    7.6080 O.2    11  THR11      -0.2714
     17  CB        14.4200   18.4830   10.5000 C.3    11  THR11       0.1808
     18  OG1       13.3390   18.3880    9.5680 O.3    11  THR11      -0.2208
     19  CG2       13.8660   18.8260   11.8980 C.3    11  THR11       0.0379
     20  N         17.0130   18.4560    8.5570 N.am   12  VAL12      -0.1963
     21  CA        17.7110   18.1960    7.2830 C.3    12  VAL12       0.1727
     22  C         17.9570   16.6850    7.0740 C.2    12  VAL12       0.2616
     23  O         17.8830   15.9010    8.0270 O.2    12  VAL12      -0.2715
     24  CB        19.0610   18.9660    7.2210 C.3    12  VAL12       0.0290
     25  CG1       18.8470   20.4970    7.3800 C.3    12  VAL12       0.0023
     26  CG2       20.0370   18.4560    8.2870 C.3    12  VAL12       0.0023
     27  N         18.2520   16.2780    5.8410 N.am   13  ASP13      -0.1971
     28  CA        18.5870   14.8690    5.5590 C.3    13  ASP13       0.1709
     29  C         19.7360   14.4280    6.4420 C.2    13  ASP13       0.2293
     30  O         20.6470   15.2160    6.6910 O.2    13  ASP13      -0.2864
     31  CB        19.0280   14.7080    4.1020 C.3    13  ASP13       0.1436
     32  CG        17.8750   14.7960    3.1280 C.2    13  ASP13       0.3671
     33  OD1       16.6920   14.6640    3.5430 O.co2  13  ASP13      -0.2456
     34  OD2       18.1620   14.9840    1.9320 O.co2  13  ASP13      -0.2456
     35  N         23.4160   15.2530    5.5470 N.3    16  TRP16      -0.1241
     36  CA        23.9110   16.6170    5.8250 C.3    16  TRP16       0.1605
     37  C         24.5820   16.7140    7.2040 C.2    16  TRP16       0.2264
     38  O         25.4330   17.5910    7.4310 O.2    16  TRP16      -0.2867
     39  CB        22.7600   17.6030    5.7860 C.3    16  TRP16       0.0550
     40  CG        22.1380   17.8850    4.4570 C.ar   16  TRP16       0.0003
     41  CD1       21.9440   17.0140    3.4000 C.ar   16  TRP16       0.0946
     42  CD2       21.5410   19.1250    4.0690 C.ar   16  TRP16       0.0152
     43  NE1       21.2760   17.6640    2.3680 N.ar   16  TRP16      -0.2442
     44  CE2       21.0090   18.9530    2.7650 C.ar   16  TRP16       0.0810
     45  CE3       21.3750   20.3650    4.7150 C.ar   16  TRP16       0.0012
     46  CZ2       20.3680   19.9910    2.0750 C.ar   16  TRP16       0.0191
     47  CZ3       20.7310   21.3990    4.0260 C.ar   16  TRP16       0.0001
     48  CH2       20.2330   21.2010    2.7260 C.ar   16  TRP16       0.0015
     49  N         26.1210   23.3400    9.3880 N.3    55  MET55      -0.1245
     50  CA        25.0090   23.5230   10.3130 C.3    55  MET55       0.1570
     51  C         25.5010   23.7730   11.7430 C.2    55  MET55       0.2261
     52  O         26.6870   23.6320   12.1180 O.2    55  MET55      -0.2867
     53  CB        24.1000   22.2790   10.3180 C.3    55  MET55       0.0387
     54  CG        23.2590   22.0960    9.0470 C.3    55  MET55       0.0595
     55  SD        21.7270   22.9910    9.1560 S.3    55  MET55      -0.1393
     56  CE        20.8340   22.0050   10.3930 C.3    55  MET55       0.0692
     57  N         27.8110   32.0000    1.8950 N.3    83  HIS83      -0.1241
     58  CA        26.6760   32.8890    2.2830 C.3    83  HIS83       0.1621
     59  C         26.2250   32.6360    3.7070 C.2    83  HIS83       0.2264
     60  O         26.3930   31.5280    4.2360 O.2    83  HIS83      -0.2867
     61  CB        25.5030   32.8140    1.2850 C.3    83  HIS83       0.0745
     62  CG        24.7420   31.5250    1.2920 C.ar   83  HIS83       0.0817
     63  ND1       25.1090   30.4350    0.5300 N.ar   83  HIS83      -0.2268
     64  CD2       23.5920   31.1740    1.9160 C.ar   83  HIS83       0.1154
     65  CE1       24.2360   29.4590    0.7040 C.ar   83  HIS83       0.1986
     66  NE2       23.2940   29.8890    1.5300 N.ar   83  HIS83      -0.2212
     67  N         23.6510   31.7780    5.4950 N.3    85  HIS85      -0.1226
     68  CA        22.5110   30.9530    5.9370 C.3    85  HIS85       0.1752
     69  C         22.9390   29.9280    6.9990 C.2    85  HIS85       0.2596
     70  O         24.1260   29.6230    7.1070 O.2    85  HIS85      -0.2718
     71  CB        21.8380   30.2200    4.7550 C.3    85  HIS85       0.0759
     72  CG        20.8490   31.0570    3.9990 C.ar   85  HIS85       0.0818
     73  ND1       20.3950   30.7070    2.7420 N.ar   85  HIS85      -0.2268
     74  CD2       20.2500   32.2380    4.3050 C.ar   85  HIS85       0.1154
     75  CE1       19.5350   31.6220    2.3170 C.ar   85  HIS85       0.1986
     76  NE2       19.4290   32.5600    3.2480 N.ar   85  HIS85      -0.2212
     77  N         21.9570   29.4170    7.7550 N.am   86  ALA86      -0.1966
     78  CA        22.1690   28.5380    8.8950 C.3    86  ALA86       0.1728
     79  C         22.8960   27.2500    8.5250 C.2    86  ALA86       0.2616
     80  O         23.5500   26.6510    9.3670 O.2    86  ALA86      -0.2715
     81  CB        20.8120   28.1870    9.5380 C.3    86  ALA86       0.0334
     82  N         22.7340   26.8090    7.2810 N.am   87  ASP87      -0.1957
     83  CA        23.3430   25.5440    6.8540 C.3    87  ASP87       0.1840
     84  C         24.7870   25.6650    6.3630 C.2    87  ASP87       0.2622
     85  O         25.3880   24.6420    6.0140 O.2    87  ASP87      -0.2715
     86  CB        22.4690   24.8180    5.8390 C.3    87  ASP87       0.1450
     87  CG        22.2050   25.6400    4.5610 C.2    87  ASP87       0.3671
     88  OD1       22.1860   26.9020    4.5840 O.co2  87  ASP87      -0.2456
     89  OD2       21.9990   24.9910    3.5160 O.co2  87  ASP87      -0.2456
     90  N         25.3420   26.8900    6.3690 N.am   88  HIS88      -0.1973
     91  CA        26.7570   27.1230    6.0340 C.3    88  HIS88       0.1656
     92  C         27.5190   27.9400    7.0750 C.2    88  HIS88       0.2291
     93  O         28.7500   27.7790    7.2410 O.2    88  HIS88      -0.2864
     94  CB        26.8900   27.7410    4.6290 C.3    88  HIS88       0.0771
     95  CG        25.9940   27.0950    3.6290 C.ar   88  HIS88       0.0820
     96  ND1       26.2380   25.8440    3.1130 N.ar   88  HIS88      -0.2267
     97  CD2       24.8080   27.4930    3.1080 C.ar   88  HIS88       0.1154
     98  CE1       25.2520   25.5060    2.3010 C.ar   88  HIS88       0.1986
     99  NE2       24.3700   26.4900    2.2780 N.ar   88  HIS88      -0.2212
    100  N         13.0210   33.6490    3.6930 N.3   123  PHE123     -0.1241
    101  CA        12.6710   32.6430    4.7090 C.3   123  PHE123      0.1605
    102  C         12.1210   33.3220    5.9770 C.2   123  PHE123      0.2264
    103  O         11.7640   32.6460    6.9400 O.2   123  PHE123     -0.2867
    104  CB        13.9130   31.8270    5.1240 C.3   123  PHE123      0.0534
    105  CG        14.4980   30.9540    4.0300 C.ar  123  PHE123     -0.0203
    106  CD1       13.8710   29.7870    3.6360 C.ar  123  PHE123     -0.0042
    107  CD2       15.7270   31.2560    3.4640 C.ar  123  PHE123     -0.0042
    108  CE1       14.4440   28.9690    2.6470 C.ar  123  PHE123     -0.0003
    109  CE2       16.3120   30.4250    2.4720 C.ar  123  PHE123     -0.0003
    110  CZ        15.6740   29.3030    2.0700 C.ar  123  PHE123     -0.0000
    111  N         14.7610   30.1670    9.5730 N.3   127  ILE127     -0.1245
    112  CA        16.0920   29.5400    9.6960 C.3   127  ILE127      0.1561
    113  C         17.1180   30.4080   10.4580 C.2   127  ILE127      0.2260
    114  O         18.1270   30.8460    9.8940 O.2   127  ILE127     -0.2867
    115  CB        16.7060   29.0920    8.3160 C.3   127  ILE127      0.0252
    116  CG1       16.5230   30.1950    7.2600 C.3   127  ILE127      0.0019
    117  CG2       16.0510   27.8020    7.8230 C.3   127  ILE127      0.0019
    118  CD1       17.4110   30.0780    6.0260 C.3   127  ILE127      0.0001
    119  N         21.4230   34.2640   -4.5310 N.3   159  HIS159     -0.1241
    120  CA        20.9630   33.3400   -3.4980 C.3   159  HIS159      0.1621
    121  C         20.7990   34.0770   -2.1630 C.2   159  HIS159      0.2264
    122  O         19.7860   33.9050   -1.4730 O.2   159  HIS159     -0.2867
    123  CB        21.8780   32.0940   -3.3620 C.3   159  HIS159      0.0745
    124  CG        21.3780   31.1140   -2.3460 C.ar  159  HIS159      0.0817
    125  ND1       20.3710   30.2180   -2.6180 N.ar  159  HIS159     -0.2268
    126  CD2       21.7230   30.9110   -1.0530 C.ar  159  HIS159      0.1154
    127  CE1       20.1040   29.5100   -1.5350 C.ar  159  HIS159      0.1986
    128  NE2       20.9020   29.9180   -0.5670 N.ar  159  HIS159     -0.2212
    129  N         26.1060   28.9290   -3.8090 N.3   184  SER184     -0.1217
    130  CA        24.8650   28.4230   -4.3890 C.3   184  SER184      0.1889
    131  C         24.2390   29.4180   -5.3750 C.2   184  SER184      0.2288
    132  O         24.3200   30.6520   -5.1740 O.2   184  SER184     -0.2866
    133  CB        23.8390   28.1480   -3.2740 C.3   184  SER184      0.2089
    134  OG        24.4210   27.4510   -2.1930 O.3   184  SER184     -0.2183
    135  N         20.8310   28.4220   -6.3800 N.3   186  SER186     -0.1217
    136  CA        19.4760   27.9810   -6.1640 C.3   186  SER186      0.1889
    137  C         18.6880   29.2120   -5.7430 C.2   186  SER186      0.2288
    138  O         19.2610   30.2350   -5.3330 O.2   186  SER186     -0.2866
    139  CB        19.4500   26.9190   -5.0670 C.3   186  SER186      0.2089
    140  OG        20.1920   27.3630   -3.9420 O.3   186  SER186     -0.2183
    141  N         15.5060   28.4460   -3.6590 N.3   188  PRO188     -0.2116
    142  CA        14.5280   27.4870   -3.1200 C.3   188  PRO188      0.1372
    143  C         13.2810   28.1720   -2.5020 C.2   188  PRO188      0.2244
    144  O         13.3500   28.8220   -1.4440 O.2   188  PRO188     -0.2868
    145  CB        15.3330   26.7240   -2.0590 C.3   188  PRO188      0.0268
    146  CG        16.3720   27.7240   -1.6210 C.3   188  PRO188      0.0207
    147  CD        16.7390   28.4790   -2.8480 C.3   188  PRO188      0.0892
    148  N         26.7010   23.0240   -1.1590 N.3   224  HIS224     -0.1241
    149  CA        26.0110   21.7270   -1.2390 C.3   224  HIS224      0.1621
    150  C         26.7800   20.9660   -2.3000 C.2   224  HIS224      0.2264
    151  O         26.7090   21.3330   -3.4800 O.2   224  HIS224     -0.2867
    152  CB        24.5390   21.9070   -1.6200 C.3   224  HIS224      0.0745
    153  CG        23.7520   22.6750   -0.5990 C.ar  224  HIS224      0.0817
    154  ND1       23.1790   22.0740    0.5010 N.ar  224  HIS224     -0.2268
    155  CD2       23.4460   23.9960   -0.5100 C.ar  224  HIS224      0.1154
    156  CE1       22.5500   22.9910    1.2210 C.ar  224  HIS224      0.1986
    157  NE2       22.7220   24.1680    0.6440 N.ar  224  HIS224     -0.2212
@<TRIPOS>BOND
     1   135   136    1
     2   136   137    1
     3   136   139    1
     4   137   138    2
     5   131   132    2
     6   131   130    1
     7   139   140    1
     8   119   120    1
     9   130   129    1
    10   130   133    1
    11   141   142    1
    12   141   147    1
    13   120   123    1
    14   120   121    1
    15   151   150    2
    16   123   124    1
    17   133   134    1
    18   142   143    1
    19   142   145    1
    20   147   146    1
    21   125   124   ar
    22   125   127   ar
    23   143   144    2
    24   124   126   ar
    25   150   149    1
    26   121   122    2
    27   145   146    1
    28   152   149    1
    29   152   153    1
    30   127   128   ar
    31   149   148    1
    32   126   128   ar
    33   153   155   ar
    34   153   154   ar
    35   155   157   ar
    36   154   156   ar
    37    63    65   ar
    38    63    62   ar
    39   157   156   ar
    40    65    66   ar
    41    61    62    1
    42    61    58    1
    43    62    64   ar
    44    66    64   ar
    45    57    58    1
    46    34    32   ar
    47   110   109   ar
    48   110   108   ar
    49    46    48   ar
    50    46    44   ar
    51    99    98   ar
    52    99    97   ar
    53    58    59    1
    54    98    96   ar
    55    75    73   ar
    56    75    76   ar
    57    43    44   ar
    58    43    41   ar
    59   109   107   ar
    60   108   106   ar
    61    48    47   ar
    62    73    72   ar
    63    44    42   ar
    64    97    95   ar
    65    96    95   ar
    66    32    33   ar
    67    32    31    1
    68    76    74   ar
    69    41    40   ar
    70   107   105   ar
    71    89    87   ar
    72    95    94    1
    73   106   105   ar
    74   100   101    1
    75    59    60    2
    76    72    74   ar
    77    72    71    1
    78    47    45   ar
    79   105   104    1
    80    42    40   ar
    81    42    45   ar
    82    31    28    1
    83    40    39    1
    84    87    88   ar
    85    87    86    1
    86    94    91    1
    87   101   104    1
    88   101   102    1
    89    71    68    1
    90    67    68    1
    91    35    36    1
    92    28    27    1
    93    28    29    1
    94    39    36    1
    95    36    37    1
    96    86    83    1
    97    27    22   am
    98    68    69    1
    99   102   103    2
   100    85    84    2
   101   118   116    1
   102    91    90    1
   103    91    92    1
   104    84    90   am
   105    84    83    1
   106    29    30    2
   107    83    82    1
   108    69    70    2
   109    69    77   am
   110    22    21    1
   111    22    23    2
   112    92    93    2
   113    37    38    2
   114    24    21    1
   115    24    25    1
   116    24    26    1
   117   116   115    1
   118    82    79   am
   119    21    20    1
   120    16    15    2
   121    77    78    1
   122   117   115    1
   123   115   112    1
   124    79    78    1
   125    79    80    2
   126    20    15   am
   127    15    14    1
   128    78    81    1
   129    54    55    1
   130    54    53    1
   131    55    56    1
   132    49    50    1
   133    18    17    1
   134   111   112    1
   135   112   113    1
   136     5     6    1
   137     5     2    1
   138   114   113    2
   139    14    13    1
   140    14    17    1
   141    13     3   am
   142     8     6   ar
   143     8    10   ar
   144    50    53    1
   145    50    51    1
   146     6     7   ar
   147    17    19    1
   148     2     3    1
   149     2     1    1
   150     3     4    2
   151    10    11   ar
   152     7     9   ar
   153    11     9   ar
   154    11    12    1
   155    51    52    2
