@<TRIPOS>MOLECULE
tmp/2gfyA00.pdb
 117 111 0 0 0
SMALL
GASTEIGER

@<TRIPOS>ATOM
      1  N         -6.0600   60.6760   54.3700 N.3   106  GLY106     -0.1210
      2  CA        -5.5670   61.9660   54.8280 C.3   106  GLY106      0.1956
      3  C         -4.4350   62.4770   53.9440 C.2   106  GLY106      0.2611
      4  O         -4.5010   63.6020   53.4770 O.2   106  GLY106     -0.2717
      5  N         -3.4050   61.6570   53.7030 N.am  107  ILE107     -0.1979
      6  CA        -2.3040   62.0730   52.8150 C.3   107  ILE107      0.1595
      7  C         -2.0360   61.2840   51.5260 C.2   107  ILE107      0.2287
      8  O         -1.5970   61.8420   50.4940 O.2   107  ILE107     -0.2864
      9  CB        -1.0250   62.4060   53.5350 C.3   107  ILE107      0.0276
     10  CG1       -0.1930   63.2920   52.6230 C.3   107  ILE107      0.0022
     11  CG2       -0.2790   61.1680   53.8280 C.3   107  ILE107      0.0022
     12  CD1       -0.1910   64.7120   53.0430 C.3   107  ILE107      0.0001
     13  N          2.4200   58.8580   50.7340 N.3   110  LEU110     -0.1245
     14  CA         3.5360   59.5540   51.4030 C.3   110  LEU110      0.1561
     15  C          4.8610   58.8620   51.1350 C.2   110  LEU110      0.2260
     16  O          5.8860   59.5170   50.9900 O.2   110  LEU110     -0.2867
     17  CB         3.3080   59.5660   52.9060 C.3   110  LEU110      0.0270
     18  CG         3.4120   60.8250   53.7490 C.3   110  LEU110      0.0019
     19  CD1        4.2250   60.4670   54.9520 C.3   110  LEU110      0.0001
     20  CD2        4.0510   61.9210   52.9470 C.3   110  LEU110      0.0001
     21  N         -8.5740   64.7030   56.4630 N.3   161  ALA161     -0.1231
     22  CA        -7.6080   64.3040   57.4740 C.3   161  ALA161      0.1694
     23  C         -8.1770   63.1750   58.2850 C.2   161  ALA161      0.2592
     24  O         -8.6900   62.2010   57.7430 O.2   161  ALA161     -0.2718
     25  CB        -7.2570   65.4910   58.4000 C.3   161  ALA161      0.0304
     26  N         -8.1110   63.3580   59.5990 N.am  162  CYS162     -0.1970
     27  CA        -8.5720   62.4110   60.5890 C.3   162  CYS162      0.1712
     28  C        -10.0530   62.0980   60.5350 C.2   162  CYS162      0.2296
     29  O        -10.4920   61.1190   61.1610 O.2   162  CYS162     -0.2864
     30  CB        -8.2520   62.9770   61.9390 C.3   162  CYS162      0.0983
     31  SG        -6.5060   62.7700   62.3250 S.3   162  CYS162     -0.0798
     32  N         -4.9590   54.4870   55.0280 N.3   190  GLU190     -0.1245
     33  CA        -3.7830   55.2910   55.2910 C.3   190  GLU190      0.1567
     34  C         -2.6260   54.3880   55.6110 C.2   190  GLU190      0.2260
     35  O         -2.8130   53.2770   56.1040 O.2   190  GLU190     -0.2867
     36  CB        -4.0020   56.2460   56.4580 C.3   190  GLU190      0.0388
     37  CG        -3.0160   57.3970   56.4670 C.3   190  GLU190      0.1160
     38  CD        -3.5800   58.6490   55.8370 C.2   190  GLU190      0.3649
     39  OE1       -4.7300   58.9970   56.1750 O.co2 190  GLU190     -0.2457
     40  OE2       -2.8730   59.2910   55.0260 O.co2 190  GLU190     -0.2457
     41  N          0.7260   56.1610   56.7950 N.3   192  ALA192     -0.1245
     42  CA         1.5960   57.3190   56.9590 C.3   192  ALA192      0.1562
     43  C          2.7130   57.0070   57.8990 C.2   192  ALA192      0.2260
     44  O          3.4450   57.9170   58.2780 O.2   192  ALA192     -0.2867
     45  CB         0.8410   58.5700   57.4090 C.3   192  ALA192      0.0290
     46  N          8.3910   61.1440   57.0120 N.3   196  LEU196     -0.1231
     47  CA         7.5990   62.3520   57.0040 C.3   196  LEU196      0.1693
     48  C          6.3660   62.2850   57.9110 C.2   196  LEU196      0.2592
     49  O          5.9630   63.2950   58.4860 O.2   196  LEU196     -0.2718
     50  CB         7.2170   62.7050   55.5800 C.3   196  LEU196      0.0284
     51  CG         7.8190   64.0120   55.0740 C.3   196  LEU196      0.0019
     52  CD1        9.0800   64.1670   55.7870 C.3   196  LEU196      0.0001
     53  CD2        8.0370   63.9850   53.5800 C.3   196  LEU196      0.0001
     54  N          5.7830   61.1040   58.0830 N.am  197  GLY197     -0.1957
     55  CA         4.5910   60.9870   58.9220 C.3   197  GLY197      0.1869
     56  C          5.0240   61.0640   60.3610 C.2   197  GLY197      0.2309
     57  O          4.5940   61.9500   61.1190 O.2   197  GLY197     -0.2863
     58  N          6.8220   64.2550   61.0200 N.3   200  GLY200     -0.1210
     59  CA         5.9220   65.4000   60.9380 C.3   200  GLY200      0.1956
     60  C          5.0340   65.6130   62.1660 C.2   200  GLY200      0.2611
     61  O          4.9050   66.7330   62.6800 O.2   200  GLY200     -0.2717
     62  N          4.3450   64.5590   62.5750 N.am  201  PHE201     -0.1976
     63  CA         3.4710   64.6500   63.7450 C.3   201  PHE201      0.1639
     64  C          4.3270   64.7830   65.0130 C.2   201  PHE201      0.2290
     65  O          3.8430   65.1910   66.0600 O.2   201  PHE201     -0.2864
     66  CB         2.6000   63.3790   63.8610 C.3   201  PHE201      0.0560
     67  CG         1.3460   63.4440   63.0490 C.ar  201  PHE201     -0.0200
     68  CD1        0.3860   64.4060   63.3340 C.ar  201  PHE201     -0.0042
     69  CD2        1.1850   62.6240   61.9330 C.ar  201  PHE201     -0.0042
     70  CE1       -0.7220   64.5170   62.5450 C.ar  201  PHE201     -0.0003
     71  CE2        0.1020   62.7410   61.1320 C.ar  201  PHE201     -0.0003
     72  CZ        -0.8640   63.6870   61.4330 C.ar  201  PHE201     -0.0000
     73  N         -1.3590   61.0660   70.5570 N.3   228  PHE228     -0.1241
     74  CA        -1.7990   59.8920   69.8200 C.3   228  PHE228      0.1605
     75  C         -0.7170   58.9330   69.3760 C.2   228  PHE228      0.2264
     76  O          0.4730   59.1590   69.5650 O.2   228  PHE228     -0.2867
     77  CB        -2.7410   60.2570   68.6550 C.3   228  PHE228      0.0534
     78  CG        -2.0330   60.7000   67.4090 C.ar  228  PHE228     -0.0203
     79  CD1       -1.9430   59.8640   66.3160 C.ar  228  PHE228     -0.0042
     80  CD2       -1.4710   61.9810   67.3250 C.ar  228  PHE228     -0.0042
     81  CE1       -1.3390   60.3080   65.1560 C.ar  228  PHE228     -0.0003
     82  CE2       -0.8680   62.4130   66.1690 C.ar  228  PHE228     -0.0003
     83  CZ        -0.8130   61.5800   65.0850 C.ar  228  PHE228     -0.0000
     84  N         -5.7060   57.6910   61.1460 N.3   341  LEU341     -0.1245
     85  CA        -5.8290   58.8440   60.2760 C.3   341  LEU341      0.1561
     86  C         -7.0210   58.7570   59.3050 C.2   341  LEU341      0.2260
     87  O         -8.1820   58.6930   59.7590 O.2   341  LEU341     -0.2867
     88  CB        -4.4830   59.1260   59.6200 C.3   341  LEU341      0.0270
     89  CG        -3.3070   59.2670   60.6220 C.3   341  LEU341      0.0019
     90  CD1       -1.9290   59.0050   60.0240 C.3   341  LEU341      0.0001
     91  CD2       -3.2750   60.5990   61.3230 C.3   341  LEU341      0.0001
     92  N        -12.6770   63.2510   64.4860 N.3   397  PHE397     -0.1227
     93  CA       -12.4160   64.6880   64.3300 C.3   397  PHE397      0.1736
     94  C        -11.0260   64.9670   63.7600 C.2   397  PHE397      0.2596
     95  O        -10.0490   64.3880   64.1860 O.2   397  PHE397     -0.2718
     96  CB       -12.5780   65.4490   65.6560 C.3   397  PHE397      0.0547
     97  CG       -13.6640   64.9210   66.5520 C.ar  397  PHE397     -0.0202
     98  CD1      -14.9880   64.8640   66.1170 C.ar  397  PHE397     -0.0042
     99  CD2      -13.3690   64.5110   67.8480 C.ar  397  PHE397     -0.0042
    100  CE1      -16.0160   64.3660   66.9450 C.ar  397  PHE397     -0.0003
    101  CE2      -14.3900   63.9990   68.6830 C.ar  397  PHE397     -0.0003
    102  CZ       -15.7230   63.9530   68.2310 C.ar  397  PHE397     -0.0000
    103  N        -10.9080   65.9280   62.8650 N.am  398  GLY398     -0.1942
    104  CA        -9.5750   66.2190   62.3440 C.3   398  GLY398      0.2014
    105  C         -9.1390   67.6840   62.3400 C.2   398  GLY398      0.2638
    106  O         -9.8730   68.5720   62.7830 O.2   398  GLY398     -0.2714
    107  N         -7.9390   67.9110   61.8070 N.am  399  PHE399     -0.1973
    108  CA        -7.3390   69.2380   61.6710 C.3   399  PHE399      0.1639
    109  C         -8.2100   70.1090   60.8100 C.2   399  PHE399      0.2290
    110  O         -8.9570   69.6050   59.9870 O.2   399  PHE399     -0.2864
    111  CB        -5.9630   69.1610   61.0360 C.3   399  PHE399      0.0560
    112  CG        -4.9150   68.6330   61.9650 C.ar  399  PHE399     -0.0200
    113  CD1       -5.2140   68.4130   63.3030 C.ar  399  PHE399     -0.0042
    114  CD2       -3.6260   68.3270   61.4950 C.ar  399  PHE399     -0.0042
    115  CE1       -4.2470   67.9420   64.1500 C.ar  399  PHE399     -0.0003
    116  CE2       -2.6770   67.8250   62.3520 C.ar  399  PHE399     -0.0003
    117  CZ        -2.9970   67.6300   63.6880 C.ar  399  PHE399     -0.0000
@<TRIPOS>BOND
     1     8     7    2
     2    13    14    1
     3    16    15    2
     4    15    14    1
     5    14    17    1
     6     7     6    1
     7    10    12    1
     8    10     9    1
     9     6     9    1
    10     6     5    1
    11    17    18    1
    12    20    18    1
    13     4     3    2
    14     9    11    1
    15    53    51    1
    16     5     3   am
    17    18    19    1
    18     3     2    1
    19     1     2    1
    20    40    38   ar
    21    32    33    1
    22    51    50    1
    23    51    52    1
    24    33    34    1
    25    33    36    1
    26    50    47    1
    27    34    35    2
    28    38    39   ar
    29    38    37    1
    30    36    37    1
    31    21    22    1
    32    41    42    1
    33    42    45    1
    34    42    43    1
    35    47    46    1
    36    47    48    1
    37    22    23    1
    38    22    25    1
    39    24    23    2
    40    43    44    2
    41    48    54   am
    42    48    49    2
    43    54    55    1
    44    23    26   am
    45    55    56    1
    46    86    87    2
    47    86    85    1
    48    26    27    1
    49    88    85    1
    50    88    89    1
    51   110   109    2
    52    90    89    1
    53    85    84    1
    54    56    57    2
    55    28    27    1
    56    28    29    2
    57    27    30    1
    58    89    91    1
    59   109   108    1
    60    59    58    1
    61    59    60    1
    62   111   108    1
    63   111   112    1
    64    71    72   ar
    65    71    69   ar
    66    72    70   ar
    67   114   112   ar
    68   114   116   ar
    69   108   107    1
    70   107   105   am
    71    69    67   ar
    72    30    31    1
    73   112   113   ar
    74    60    62   am
    75    60    61    2
    76   105   104    1
    77   105   106    2
    78   104   103    1
    79   116   117   ar
    80    70    68   ar
    81    62    63    1
    82   103    94   am
    83    67    68   ar
    84    67    66    1
    85   113   115   ar
    86   117   115   ar
    87    63    66    1
    88    63    64    1
    89    94    95    2
    90    94    93    1
    91    93    92    1
    92    93    96    1
    93    64    65    2
    94    83    81   ar
    95    83    82   ar
    96    81    79   ar
    97    96    97    1
    98    98    97   ar
    99    98   100   ar
   100    82    80   ar
   101    79    78   ar
   102    97    99   ar
   103   100   102   ar
   104    80    78   ar
   105    78    77    1
   106    99   101   ar
   107   102   101   ar
   108    77    74    1
   109    75    76    2
   110    75    74    1
   111    74    73    1
