@<TRIPOS>MOLECULE
tmp/2gg0A00.pdb
 176 173 0 0 0
SMALL
GASTEIGER

@<TRIPOS>ATOM
      1  N         16.6390    6.8250   14.6820 N.3    57  CYS57      -0.1235
      2  CA        17.3760    5.6260   14.2940 C.3    57  CYS57       0.1677
      3  C         18.8360    5.9250   13.9520 C.2    57  CYS57       0.2270
      4  O         19.7000    5.0680   14.0980 O.2    57  CYS57      -0.2867
      5  CB        16.6930    4.9170   13.1160 C.3    57  CYS57       0.0956
      6  SG        15.0560    4.2400   13.5510 S.3    57  CYS57      -0.0801
      7  N         21.7620    5.0940   16.2810 N.3    60  TYR60      -0.1227
      8  CA        21.1900    4.4110   17.4400 C.3    60  TYR60       0.1736
      9  C         21.8380    3.0410   17.4970 C.2    60  TYR60       0.2595
     10  O         21.7090    2.2500   16.5690 O.2    60  TYR60      -0.2718
     11  CB        19.6720    4.3110   17.2840 C.3    60  TYR60       0.0548
     12  CG        18.9460    3.4900   18.3270 C.ar   60  TYR60      -0.0200
     13  CD1       18.5340    4.0440   19.5470 C.ar   60  TYR60      -0.0009
     14  CD2       18.6380    2.1560   18.0800 C.ar   60  TYR60      -0.0009
     15  CE1       17.8480    3.2790   20.4940 C.ar   60  TYR60       0.0417
     16  CE2       17.9660    1.3960   19.0140 C.ar   60  TYR60       0.0417
     17  CZ        17.5750    1.9540   20.2090 C.ar   60  TYR60       0.1957
     18  OH        16.9040    1.1270   21.0810 O.3    60  TYR60      -0.2866
     19  N         22.5630    2.7760   18.5820 N.am   61  HIS61      -0.1975
     20  CA        23.3850    1.5810   18.6830 C.3    61  HIS61       0.1656
     21  C         24.2950    1.3680   17.4640 C.2    61  HIS61       0.2291
     22  O         24.6560    0.2330   17.1250 O.2    61  HIS61      -0.2864
     23  CB        22.5240    0.3540   19.0120 C.3    61  HIS61       0.0771
     24  CG        21.7350    0.4870   20.2810 C.ar   61  HIS61       0.0820
     25  ND1       21.9740   -0.2920   21.3920 N.ar   61  HIS61      -0.2267
     26  CD2       20.7150    1.3110   20.6160 C.ar   61  HIS61       0.1154
     27  CE1       21.1240    0.0360   22.3490 C.ar   61  HIS61       0.1986
     28  NE2       20.3470    1.0060   21.9040 N.ar   61  HIS61      -0.2212
     29  N         23.5880    2.3190   14.2940 N.3    63  TYR63      -0.1241
     30  CA        22.8650    2.1650   13.0330 C.3    63  TYR63       0.1605
     31  C         23.2090    3.3100   12.0770 C.2    63  TYR63       0.2264
     32  O         23.1730    4.4740   12.4690 O.2    63  TYR63      -0.2867
     33  CB        21.3560    2.1120   13.2970 C.3    63  TYR63       0.0534
     34  CG        20.5600    1.8250   12.0420 C.ar   63  TYR63      -0.0201
     35  CD1       20.5280    0.5510   11.4800 C.ar   63  TYR63      -0.0009
     36  CD2       19.8740    2.8460   11.3870 C.ar   63  TYR63      -0.0009
     37  CE1       19.8170    0.2880   10.3170 C.ar   63  TYR63       0.0417
     38  CE2       19.1670    2.6010   10.2450 C.ar   63  TYR63       0.0417
     39  CZ        19.1420    1.3350    9.7080 C.ar   63  TYR63       0.1957
     40  OH        18.4480    1.1110    8.5450 O.3    63  TYR63      -0.2866
     41  N         14.5260    2.6630    8.2920 N.3    68  CYS68      -0.1235
     42  CA        14.7750    1.2760    7.9290 C.3    68  CYS68       0.1677
     43  C         13.8480    0.9240    6.7760 C.2    68  CYS68       0.2270
     44  O         12.6420    1.2460    6.8120 O.2    68  CYS68      -0.2867
     45  CB        14.5020    0.3340    9.0970 C.3    68  CYS68       0.0956
     46  SG        15.6620    0.5970   10.4430 S.3    68  CYS68      -0.0801
     47  N         14.6400   -3.9000    9.8880 N.3    77  HIS77      -0.1241
     48  CA        15.9790   -3.3250   10.0130 C.3    77  HIS77       0.1621
     49  C         16.7570   -3.3410    8.6980 C.2    77  HIS77       0.2264
     50  O         17.9910   -3.2750    8.7140 O.2    77  HIS77      -0.2867
     51  CB        16.7680   -3.9610   11.1660 C.3    77  HIS77       0.0745
     52  CG        16.0330   -3.9280   12.4710 C.ar   77  HIS77       0.0817
     53  ND1       16.4370   -4.6510   13.5700 N.ar   77  HIS77      -0.2268
     54  CD2       14.8800   -3.3100   12.8310 C.ar   77  HIS77       0.1154
     55  CE1       15.5920   -4.4440   14.5660 C.ar   77  HIS77       0.1986
     56  NE2       14.6290   -3.6450   14.1400 N.ar   77  HIS77      -0.2212
     57  N         10.0450    2.2720    7.8610 N.3    95  ASP95      -0.1225
     58  CA         9.7730    2.5190    9.2810 C.3    95  ASP95       0.1805
     59  C         10.5510    3.7700    9.6810 C.2    95  ASP95       0.2598
     60  O         11.7880    3.8500    9.5130 O.2    95  ASP95      -0.2718
     61  CB        10.1860    1.2840   10.1020 C.3    95  ASP95       0.1424
     62  CG         9.7460    1.3590   11.5560 C.2    95  ASP95       0.3668
     63  OD1        9.2100    2.4020   12.0060 O.co2  95  ASP95      -0.2456
     64  OD2        9.9030    0.3600   12.2690 O.co2  95  ASP95      -0.2456
     65  N          9.7970    4.7340   10.2010 N.am   96  VAL96      -0.1966
     66  CA        10.2550    6.0770   10.5340 C.3    96  VAL96       0.1727
     67  C         10.1110    6.2870   12.0310 C.2    96  VAL96       0.2616
     68  O          9.0960    5.9240   12.6210 O.2    96  VAL96      -0.2715
     69  CB         9.3900    7.1420    9.8100 C.3    96  VAL96       0.0290
     70  CG1        9.8310    8.5580   10.2200 C.3    96  VAL96       0.0023
     71  CG2        9.5030    6.9430    8.3030 C.3    96  VAL96       0.0023
     72  N         11.1140    6.8910   12.6420 N.am   97  THR97      -0.1951
     73  CA        10.9340    7.4520   13.9710 C.3    97  THR97       0.1897
     74  C         11.6190    8.8000   14.0290 C.2    97  THR97       0.2313
     75  O         12.8260    8.9130   13.7520 O.2    97  THR97      -0.2863
     76  CB        11.4630    6.5440   15.0900 C.3    97  THR97       0.1794
     77  OG1       10.8840    5.2310   14.9750 O.3    97  THR97      -0.2208
     78  CG2       11.1340    7.1420   16.4840 C.3    97  THR97       0.0378
     79  N          6.6410    7.1300   16.0770 N.3   106  ASP106     -0.1239
     80  CA         7.2190    5.9250   15.4600 C.3   106  ASP106      0.1674
     81  C          6.1080    5.2500   14.6550 C.2   106  ASP106      0.2266
     82  O          5.0530    4.9020   15.1840 O.2   106  ASP106     -0.2867
     83  CB         7.7570    5.0230   16.5910 C.3   106  ASP106      0.1410
     84  CG         8.4360    3.7520   16.1240 C.2   106  ASP106      0.3668
     85  OD1        8.8730    3.0290   17.0580 O.co2 106  ASP106     -0.2456
     86  OD2        8.5520    3.4680   14.9080 O.co2 106  ASP106     -0.2456
     87  N         10.0240  -12.0040   18.0490 N.3   165  GLU165     -0.1231
     88  CA        11.0180  -10.9830   18.4180 C.3   165  GLU165      0.1699
     89  C         10.5460   -9.5520   18.0230 C.2   165  GLU165      0.2592
     90  O          9.5990   -9.3990   17.2580 O.2   165  GLU165     -0.2718
     91  CB        12.2890  -11.3440   17.6350 C.3   165  GLU165      0.0402
     92  CG        12.9170  -12.7230   17.9650 C.3   165  GLU165      0.1161
     93  CD        12.4330  -13.9010   17.0940 C.2   165  GLU165      0.3649
     94  OE1       11.3850  -13.8090   16.4200 O.co2 165  GLU165     -0.2457
     95  OE2       13.1130  -14.9560   17.0760 O.co2 165  GLU165     -0.2457
     96  N         11.2330   -8.5090   18.4710 N.am  166  TYR166     -0.1962
     97  CA        10.8090   -7.1890   18.0460 C.3   166  TYR166      0.1771
     98  C          9.3240   -7.2140   18.3500 C.2   166  TYR166      0.2619
     99  O          8.4890   -7.7350   17.6110 O.2   166  TYR166     -0.2715
    100  CB        11.0540   -6.9860   16.5510 C.3   166  TYR166      0.0574
    101  CG        12.3620   -7.5910   16.1290 C.ar  166  TYR166     -0.0198
    102  CD1       13.5670   -7.0060   16.4960 C.ar  166  TYR166     -0.0009
    103  CD2       12.3950   -8.7580   15.3730 C.ar  166  TYR166     -0.0009
    104  CE1       14.7730   -7.5640   16.1180 C.ar  166  TYR166      0.0417
    105  CE2       13.5990   -9.3240   14.9930 C.ar  166  TYR166      0.0417
    106  CZ        14.7810   -8.7210   15.3690 C.ar  166  TYR166      0.1957
    107  OH        15.9770   -9.2810   14.9900 O.3   166  TYR166     -0.2866
    108  N          9.0190   -6.6610   19.5040 N.am  167  CYS167     -0.1968
    109  CA         7.6450   -6.3100   19.8280 C.3   167  CYS167      0.1712
    110  C          7.4220   -4.7940   19.8130 C.2   167  CYS167      0.2296
    111  O          8.3750   -3.9960   19.7640 O.2   167  CYS167     -0.2864
    112  CB         7.2720   -6.9020   21.1920 C.3   167  CYS167      0.0983
    113  SG         8.4250   -6.5420   22.5420 S.3   167  CYS167     -0.0798
    114  N          6.1270   -1.3370   21.8490 N.3   169  HIS169     -0.1241
    115  CA         6.8600   -0.7660   22.9710 C.3   169  HIS169      0.1621
    116  C          6.2590    0.5440   23.4520 C.2   169  HIS169      0.2264
    117  O          5.7600    1.3410   22.6630 O.2   169  HIS169     -0.2867
    118  CB         8.3240   -0.5380   22.5790 C.3   169  HIS169      0.0745
    119  CG         8.4710    0.2530   21.3210 C.ar  169  HIS169      0.0817
    120  ND1        8.5800    1.6260   21.3110 N.ar  169  HIS169     -0.2268
    121  CD2        8.4840   -0.1400   20.0240 C.ar  169  HIS169      0.1154
    122  CE1        8.6790    2.0410   20.0550 C.ar  169  HIS169      0.1986
    123  NE2        8.6200    0.9940   19.2550 N.ar  169  HIS169     -0.2212
    124  N         12.8600    6.2450   23.2980 N.3   175  PHE175     -0.1227
    125  CA        12.4850    5.5480   22.0710 C.3   175  PHE175      0.1736
    126  C         11.7450    4.2710   22.4710 C.2   175  PHE175      0.2595
    127  O         10.6510    3.9890   21.9790 O.2   175  PHE175     -0.2718
    128  CB        13.7670    5.2340   21.2900 C.3   175  PHE175      0.0547
    129  CG        13.5590    4.8580   19.8500 C.ar  175  PHE175     -0.0202
    130  CD1       12.3160    4.4780   19.3370 C.ar  175  PHE175     -0.0042
    131  CD2       14.6520    4.8420   19.0000 C.ar  175  PHE175     -0.0042
    132  CE1       12.1970    4.1230   17.9940 C.ar  175  PHE175     -0.0003
    133  CE2       14.5400    4.5030   17.6620 C.ar  175  PHE175     -0.0003
    134  CZ        13.3200    4.1350   17.1580 C.ar  175  PHE175     -0.0000
    135  N         12.3450    3.5240   23.3870 N.am  176  HIS176     -0.1975
    136  CA        11.7570    2.2980   23.8980 C.3   176  HIS176      0.1656
    137  C         11.6110    2.3480   25.4130 C.2   176  HIS176      0.2291
    138  O         12.5910    2.4840   26.1440 O.2   176  HIS176     -0.2864
    139  CB        12.5900    1.1010   23.4450 C.3   176  HIS176      0.0771
    140  CG        12.7360    1.0480   21.9570 C.ar  176  HIS176      0.0820
    141  ND1       13.8160    1.5970   21.2970 N.ar  176  HIS176     -0.2267
    142  CD2       11.9040    0.5760   20.9950 C.ar  176  HIS176      0.1154
    143  CE1       13.6570    1.4310   19.9950 C.ar  176  HIS176      0.1986
    144  NE2       12.5020    0.8210   19.7830 N.ar  176  HIS176     -0.2212
    145  N          3.0760   -2.9650   16.4150 N.3   202  GLU202     -0.1245
    146  CA         3.8870   -3.0870   15.1900 C.3   202  GLU202      0.1567
    147  C          4.0900   -4.5270   14.7290 C.2   202  GLU202      0.2260
    148  O          5.2080   -5.0000   14.5950 O.2   202  GLU202     -0.2867
    149  CB         5.2010   -2.3020   15.3060 C.3   202  GLU202      0.0388
    150  CG         6.2210   -2.7300   16.3650 C.3   202  GLU202      0.1160
    151  CD         7.4100   -1.7730   16.3450 C.2   202  GLU202      0.3649
    152  OE1        8.0670   -1.6970   15.2730 O.co2 202  GLU202     -0.2457
    153  OE2        7.6440   -1.0480   17.3310 O.co2 202  GLU202     -0.2457
    154  N         22.5680   -6.3680   11.2400 N.3   219  TRP219     -0.1241
    155  CA        21.3650   -5.5390   11.3000 C.3   219  TRP219      0.1605
    156  C         20.1650   -6.2090   10.6370 C.2   219  TRP219      0.2264
    157  O         19.0690   -6.2930   11.2130 O.2   219  TRP219     -0.2867
    158  CB        21.6000   -4.2030   10.6000 C.3   219  TRP219      0.0550
    159  CG        22.5180   -3.2790   11.3240 C.ar  219  TRP219      0.0003
    160  CD1       23.7310   -2.8250   10.8970 C.ar  219  TRP219      0.0946
    161  CD2       22.2880   -2.6850   12.6080 C.ar  219  TRP219      0.0152
    162  NE1       24.2660   -1.9700   11.8380 N.ar  219  TRP219     -0.2442
    163  CE2       23.4030   -1.8770   12.9000 C.ar  219  TRP219      0.0810
    164  CE3       21.2430   -2.7580   13.5380 C.ar  219  TRP219      0.0012
    165  CZ2       23.5000   -1.1470   14.0800 C.ar  219  TRP219      0.0191
    166  CZ3       21.3400   -2.0160   14.7190 C.ar  219  TRP219      0.0001
    167  CH2       22.4650   -1.2330   14.9760 C.ar  219  TRP219      0.0015
    168  N          2.8780   -0.1660   11.6780 N.3   233  GLU233     -0.1245
    169  CA         3.0720    0.3530   13.0280 C.3   233  GLU233      0.1567
    170  C          2.3610    1.6670   13.2020 C.2   233  GLU233      0.2260
    171  O          2.4150    2.5310   12.3210 O.2   233  GLU233     -0.2867
    172  CB         4.5440    0.5300   13.3580 C.3   233  GLU233      0.0388
    173  CG         4.8480    1.2070   14.7050 C.3   233  GLU233      0.1160
    174  CD         6.3410    1.2130   14.9760 C.2   233  GLU233      0.3649
    175  OE1        6.7460    1.2530   16.1560 O.co2 233  GLU233     -0.2457
    176  OE2        7.1070    1.2220   13.9790 O.co2 233  GLU233     -0.2457
@<TRIPOS>BOND
     1    43    44    2
     2    43    42    1
     3    57    58    1
     4    42    41    1
     5    42    45    1
     6    71    69    1
     7    40    39    1
     8    49    50    2
     9    49    48    1
    10    45    46    1
    11    58    59    1
    12    58    61    1
    13    60    59    2
    14    59    65   am
    15    39    38   ar
    16    39    37   ar
    17    69    70    1
    18    69    66    1
    19    47    48    1
    20    48    51    1
    21    61    62    1
    22    65    66    1
    23    38    36   ar
    24    37    35   ar
    25    66    67    1
    26   158   155    1
    27   158   159    1
    28   156   157    2
    29   156   155    1
    30   160   159   ar
    31   160   162   ar
    32    51    52    1
    33   154   155    1
    34   159   161   ar
    35    36    34   ar
    36    35    34   ar
    37    62    63   ar
    38    62    64   ar
    39   168   169    1
    40   162   163   ar
    41    67    68    2
    42    67    72   am
    43    34    33    1
    44    31    32    2
    45    31    30    1
    46   171   170    2
    47    52    54   ar
    48    52    53   ar
    49   161   163   ar
    50   161   164   ar
    51    72    73    1
    52    54    56   ar
    53   163   165   ar
    54   169   170    1
    55   169   172    1
    56    30    33    1
    57    30    29    1
    58     5     6    1
    59     5     2    1
    60   172   173    1
    61   164   166   ar
    62    53    55   ar
    63    75    74    2
    64     3     4    2
    65     3     2    1
    66    73    74    1
    67    73    76    1
    68   176   174   ar
    69   165   167   ar
    70    56    55   ar
    71     2     1    1
    72   148   147    2
    73    81    82    2
    74    81    80    1
    75   173   174    1
    76   166   167   ar
    77   147   146    1
    78    86    84   ar
    79    77    76    1
    80   174   175   ar
    81   107   106    1
    82   105   106   ar
    83   105   103   ar
    84    76    78    1
    85   146   149    1
    86   146   145    1
    87   152   151   ar
    88   149   150    1
    89   106   104   ar
    90   103   101   ar
    91    80    79    1
    92    80    83    1
    93   104   102   ar
    94    84    83    1
    95    84    85   ar
    96   101   102   ar
    97   101   100    1
    98     7     8    1
    99   151   150    1
   100   151   153   ar
   101    94    93   ar
   102   100    97    1
   103    10     9    2
   104    95    93   ar
   105    93    92    1
   106    22    21    2
   107   134   133   ar
   108   134   132   ar
   109    90    89    2
   110    11     8    1
   111    11    12    1
   112     8     9    1
   113    21    20    1
   114     9    19   am
   115    99    98    2
   116    91    92    1
   117    91    88    1
   118   133   131   ar
   119   132   130   ar
   120    89    88    1
   121    89    96   am
   122    97    98    1
   123    97    96    1
   124    87    88    1
   125    14    12   ar
   126    14    16   ar
   127    12    13   ar
   128    98   108   am
   129    19    20    1
   130    20    23    1
   131   131   129   ar
   132    23    24    1
   133    16    17   ar
   134   123   121   ar
   135   123   122   ar
   136   130   129   ar
   137   108   109    1
   138    13    15   ar
   139   111   110    2
   140   144   143   ar
   141   144   142   ar
   142   110   109    1
   143   109   112    1
   144   129   128    1
   145   143   141   ar
   146   121   119   ar
   147   122   120   ar
   148    17    15   ar
   149    17    18    1
   150    24    26   ar
   151    24    25   ar
   152    26    28   ar
   153   142   140   ar
   154   112   113    1
   155   128   125    1
   156   141   140   ar
   157   120   119   ar
   158   119   118    1
   159    25    27   ar
   160   114   115    1
   161    28    27   ar
   162   140   139    1
   163   127   126    2
   164   125   126    1
   165   125   124    1
   166   126   135   am
   167   118   115    1
   168   117   116    2
   169   115   116    1
   170   135   136    1
   171   139   136    1
   172   136   137    1
   173   137   138    2
