@<TRIPOS>MOLECULE
tmp/2gg2A00.pdb
 151 148 0 0 0
SMALL
GASTEIGER

@<TRIPOS>ATOM
      1  N         -5.4780    6.6850   10.3120 N.3    58  CYS58      -0.1235
      2  CA        -6.1930    5.4840   10.7240 C.3    58  CYS58       0.1677
      3  C         -7.6660    5.7820   10.9800 C.2    58  CYS58       0.2270
      4  O         -8.5260    4.9300   10.7360 O.2    58  CYS58      -0.2867
      5  CB        -5.5030    4.8190   11.9200 C.3    58  CYS58       0.0956
      6  SG        -3.8710    4.1550   11.4310 S.3    58  CYS58      -0.0801
      7  N        -10.4920    4.9210    8.4200 N.3    61  TYR61      -0.1227
      8  CA        -9.9110    4.0930    7.3610 C.3    61  TYR61       0.1736
      9  C        -10.5650    2.7240    7.3490 C.2    61  TYR61       0.2595
     10  O        -10.4620    1.9460    8.2930 O.2    61  TYR61      -0.2718
     11  CB        -8.4000    3.9340    7.5540 C.3    61  TYR61       0.0548
     12  CG        -7.7060    3.0450    6.5300 C.ar   61  TYR61      -0.0200
     13  CD1       -7.6320    3.4000    5.1880 C.ar   61  TYR61      -0.0009
     14  CD2       -7.1160    1.8460    6.9050 C.ar   61  TYR61      -0.0009
     15  CE1       -6.9980    2.5780    4.2540 C.ar   61  TYR61       0.0417
     16  CE2       -6.4870    1.0210    5.9860 C.ar   61  TYR61       0.0417
     17  CZ        -6.4230    1.3900    4.6630 C.ar   61  TYR61       0.1957
     18  OH        -5.8020    0.5590    3.7590 O.3    61  TYR61      -0.2866
     19  N        -11.2510    2.4540    6.2480 N.am   62  HIS62      -0.1975
     20  CA       -12.1290    1.3060    6.1430 C.3    62  HIS62       0.1656
     21  C        -13.1140    1.2490    7.3150 C.2    62  HIS62       0.2291
     22  O        -13.5920    0.1820    7.6730 O.2    62  HIS62      -0.2864
     23  CB       -11.3250   -0.0010    6.0560 C.3    62  HIS62       0.0771
     24  CG       -10.5590   -0.1810    4.7780 C.ar   62  HIS62       0.0820
     25  ND1      -11.1490   -0.1710    3.5320 N.ar   62  HIS62      -0.2267
     26  CD2       -9.2420   -0.4160    4.5640 C.ar   62  HIS62       0.1154
     27  CE1      -10.2250   -0.3640    2.6070 C.ar   62  HIS62       0.1986
     28  NE2       -9.0600   -0.5190    3.2070 N.ar   62  HIS62      -0.2212
     29  N        -12.3610    2.2360   10.4620 N.3    64  TYR64      -0.1241
     30  CA       -11.6720    2.0590   11.7380 C.3    64  TYR64       0.1605
     31  C        -12.0220    3.2060   12.6900 C.2    64  TYR64       0.2264
     32  O        -12.0040    4.3760   12.3000 O.2    64  TYR64      -0.2867
     33  CB       -10.1660    1.9720   11.5020 C.3    64  TYR64       0.0534
     34  CG        -9.3860    1.6180   12.7570 C.ar   64  TYR64      -0.0201
     35  CD1       -9.3060    0.3090   13.2250 C.ar   64  TYR64      -0.0009
     36  CD2       -8.7320    2.6100   13.4860 C.ar   64  TYR64      -0.0009
     37  CE1       -8.5780    0.0170   14.3980 C.ar   64  TYR64       0.0417
     38  CE2       -8.0250    2.3400   14.6170 C.ar   64  TYR64       0.0417
     39  CZ        -7.9540    1.0580   15.0720 C.ar   64  TYR64       0.1957
     40  OH        -7.2370    0.8760   16.2220 O.3    64  TYR64      -0.2866
     41  N         -3.5240    2.5870   16.4170 N.3    69  CYS69      -0.1235
     42  CA        -3.7220    1.1870   16.7590 C.3    69  CYS69       0.1677
     43  C         -2.8530    0.8650   17.9620 C.2    69  CYS69       0.2270
     44  O         -1.6640    1.2010   17.9710 O.2    69  CYS69      -0.2867
     45  CB        -3.3570    0.2570   15.6060 C.3    69  CYS69       0.0956
     46  SG        -4.2980    0.5150   14.1170 S.3    69  CYS69      -0.0801
     47  N         -3.6150   -4.0230   14.8380 N.3    78  HIS78      -0.1241
     48  CA        -4.9170   -3.4100   14.6730 C.3    78  HIS78       0.1621
     49  C         -5.7470   -3.4180   15.9460 C.2    78  HIS78       0.2264
     50  O         -6.9660   -3.2610   15.8870 O.2    78  HIS78      -0.2867
     51  CB        -5.6720   -3.9770   13.4630 C.3    78  HIS78       0.0745
     52  CG        -4.8850   -3.9300   12.1820 C.ar   78  HIS78       0.0817
     53  ND1       -5.2510   -4.6460   11.0640 N.ar   78  HIS78      -0.2268
     54  CD2       -3.7300   -3.2970   11.8590 C.ar   78  HIS78       0.1154
     55  CE1       -4.3690   -4.4370   10.1020 C.ar   78  HIS78       0.1986
     56  NE2       -3.4340   -3.6250   10.5570 N.ar   78  HIS78      -0.2212
     57  N          0.9060    2.2080   16.9440 N.3    96  ASP96      -0.1239
     58  CA         1.1580    2.4800   15.5280 C.3    96  ASP96       0.1674
     59  C          0.4340    3.7770   15.1810 C.2    96  ASP96       0.2266
     60  O         -0.7940    3.8880   15.3660 O.2    96  ASP96      -0.2867
     61  CB         0.6780    1.3120   14.6750 C.3    96  ASP96       0.1410
     62  CG         1.1630    1.3970   13.2370 C.2    96  ASP96       0.3668
     63  OD1        1.4300    2.4780   12.6770 O.co2  96  ASP96      -0.2456
     64  OD2        1.3330    0.3540   12.5930 O.co2  96  ASP96      -0.2456
     65  N         -0.0590    6.8440   12.2860 N.3    98  THR98      -0.1218
     66  CA         0.0470    7.3070   10.9110 C.3    98  THR98       0.1862
     67  C         -0.6520    8.6550   10.8340 C.2    98  THR98       0.2287
     68  O         -1.8420    8.7530   11.1340 O.2    98  THR98      -0.2866
     69  CB        -0.5860    6.3190    9.9290 C.3    98  THR98       0.1770
     70  OG1       -0.1650    4.9830   10.2250 O.3    98  THR98      -0.2211
     71  CG2       -0.2340    6.7010    8.4830 C.3    98  THR98       0.0375
     72  N          4.4100    7.1710    8.8830 N.3   107  ASP107     -0.1239
     73  CA         3.8700    5.9350    9.4590 C.3   107  ASP107      0.1674
     74  C          4.9620    5.2630   10.2800 C.2   107  ASP107      0.2266
     75  O          6.0450    4.9630    9.7700 O.2   107  ASP107     -0.2867
     76  CB         3.4100    5.0400    8.3030 C.3   107  ASP107      0.1410
     77  CG         2.7030    3.7720    8.7160 C.2   107  ASP107      0.3668
     78  OD1        2.4400    3.5930    9.9250 O.co2 107  ASP107     -0.2456
     79  OD2        2.4100    2.9690    7.8160 O.co2 107  ASP107     -0.2456
     80  N          0.5150   -9.6100    6.6450 N.3   167  TYR167     -0.1227
     81  CA         0.6980   -8.1590    6.6880 C.3   167  TYR167      0.1736
     82  C          2.1020   -7.8440    6.2040 C.2   167  TYR167      0.2595
     83  O          3.0000   -8.6750    6.3300 O.2   167  TYR167     -0.2718
     84  CB         0.4390   -7.6310    8.1110 C.3   167  TYR167      0.0548
     85  CG        -0.8990   -8.1260    8.5910 C.ar  167  TYR167     -0.0200
     86  CD1       -1.0070   -9.2520    9.3960 C.ar  167  TYR167     -0.0009
     87  CD2       -2.0660   -7.5000    8.1770 C.ar  167  TYR167     -0.0009
     88  CE1       -2.2500   -9.7250    9.7910 C.ar  167  TYR167      0.0417
     89  CE2       -3.3080   -7.9620    8.5640 C.ar  167  TYR167      0.0417
     90  CZ        -3.3910   -9.0730    9.3680 C.ar  167  TYR167      0.1957
     91  OH        -4.6240   -9.5360    9.7550 O.3   167  TYR167     -0.2866
     92  N          2.2720   -6.6420    5.6730 N.am  168  CYS168     -0.1970
     93  CA         3.5290   -6.2720    5.0500 C.3   168  CYS168      0.1712
     94  C          3.7310   -4.7660    5.1450 C.2   168  CYS168      0.2296
     95  O          2.8070   -4.0060    5.4530 O.2   168  CYS168     -0.2864
     96  CB         3.5560   -6.7630    3.6010 C.3   168  CYS168      0.0983
     97  SG         2.2250   -6.0890    2.5860 S.3   168  CYS168     -0.0798
     98  N          4.7950   -1.2190    3.0640 N.3   170  HIS170     -0.1241
     99  CA         4.0810   -0.6440    1.9330 C.3   170  HIS170      0.1621
    100  C          4.7270    0.6430    1.4790 C.2   170  HIS170      0.2264
    101  O          5.2240    1.4380    2.2670 O.2   170  HIS170     -0.2867
    102  CB         2.6100   -0.3740    2.2970 C.3   170  HIS170      0.0745
    103  CG         2.4460    0.3370    3.6120 C.ar  170  HIS170      0.0817
    104  ND1        2.2500    1.6950    3.7270 N.ar  170  HIS170     -0.2268
    105  CD2        2.4620   -0.1410    4.8860 C.ar  170  HIS170      0.1154
    106  CE1        2.1800    2.0130    5.0150 C.ar  170  HIS170      0.1986
    107  NE2        2.3010    0.9170    5.7540 N.ar  170  HIS170     -0.2212
    108  N         -1.9250    6.1730    1.8830 N.3   176  PHE176     -0.1227
    109  CA        -1.4610    5.4470    3.0680 C.3   176  PHE176      0.1736
    110  C         -0.6850    4.2010    2.6270 C.2   176  PHE176      0.2595
    111  O          0.4740    3.9910    3.0020 O.2   176  PHE176     -0.2718
    112  CB        -2.7180    5.1160    3.8970 C.3   176  PHE176      0.0547
    113  CG        -2.4990    4.5220    5.2740 C.ar  176  PHE176     -0.0202
    114  CD1       -1.2700    4.0850    5.7560 C.ar  176  PHE176     -0.0042
    115  CD2       -3.6130    4.3860    6.0880 C.ar  176  PHE176     -0.0042
    116  CE1       -1.1670    3.5360    7.0450 C.ar  176  PHE176     -0.0003
    117  CE2       -3.5180    3.8350    7.3650 C.ar  176  PHE176     -0.0003
    118  CZ        -2.2980    3.4090    7.8420 C.ar  176  PHE176     -0.0000
    119  N         -1.3410    3.3740    1.8150 N.am  177  HIS177     -0.1975
    120  CA        -0.7400    2.1780    1.2320 C.3   177  HIS177      0.1656
    121  C         -0.6490    2.3260   -0.2830 C.2   177  HIS177      0.2291
    122  O         -1.6520    2.4030   -0.9870 O.2   177  HIS177     -0.2864
    123  CB        -1.5310    0.9170    1.5900 C.3   177  HIS177      0.0771
    124  CG        -1.7400    0.7590    3.0620 C.ar  177  HIS177      0.0820
    125  ND1       -2.7750    1.3760    3.7290 N.ar  177  HIS177     -0.2267
    126  CD2       -1.0270    0.0940    4.0000 C.ar  177  HIS177      0.1154
    127  CE1       -2.7000    1.0840    5.0140 C.ar  177  HIS177      0.1986
    128  NE2       -1.6490    0.3050    5.2060 N.ar  177  HIS177     -0.2212
    129  N          8.1080   -2.9920    8.4520 N.3   203  GLU203     -0.1245
    130  CA         7.3090   -3.1210    9.6750 C.3   203  GLU203      0.1567
    131  C          7.0100   -4.5810   10.0280 C.2   203  GLU203      0.2260
    132  O          5.8610   -5.0150   10.1030 O.2   203  GLU203     -0.2867
    133  CB         6.0430   -2.2660    9.6050 C.3   203  GLU203      0.0388
    134  CG         5.2280   -2.3650    8.3370 C.3   203  GLU203      0.1160
    135  CD         3.9960   -1.4890    8.4380 C.2   203  GLU203      0.3649
    136  OE1        3.4410   -1.3960    9.5610 O.co2 203  GLU203     -0.2457
    137  OE2        3.5840   -0.8970    7.4170 O.co2 203  GLU203     -0.2457
    138  N        -11.5160   -6.4730   13.4410 N.3   220  TRP220     -0.1241
    139  CA       -10.3160   -5.6390   13.4400 C.3   220  TRP220      0.1605
    140  C         -9.1350   -6.3340   14.1150 C.2   220  TRP220      0.2264
    141  O         -8.0470   -6.4080   13.5580 O.2   220  TRP220     -0.2867
    142  CB       -10.5690   -4.3150   14.1640 C.3   220  TRP220      0.0550
    143  CG       -11.5180   -3.3730   13.4860 C.ar  220  TRP220      0.0003
    144  CD1      -12.7000   -2.9030   13.9780 C.ar  220  TRP220      0.0946
    145  CD2      -11.3630   -2.7710   12.1980 C.ar  220  TRP220      0.0152
    146  NE1      -13.2880   -2.0420   13.0800 N.ar  220  TRP220     -0.2442
    147  CE2      -12.4880   -1.9480   11.9740 C.ar  220  TRP220      0.0810
    148  CE3      -10.3780   -2.8460   11.2090 C.ar  220  TRP220      0.0012
    149  CZ2      -12.6490   -1.2050   10.8060 C.ar  220  TRP220      0.0191
    150  CZ3      -10.5440   -2.1060   10.0510 C.ar  220  TRP220      0.0001
    151  CH2      -11.6680   -1.3040    9.8600 C.ar  220  TRP220      0.0015
@<TRIPOS>BOND
     1   122   121    2
     2   121   120    1
     3   120   123    1
     4   120   119    1
     5   100    99    1
     6   100   101    2
     7   123   124    1
     8   119   110   am
     9   108   109    1
    10    99   102    1
    11    99    98    1
    12   102   103    1
    13    97    96    1
    14    27    28   ar
    15    27    25   ar
    16   110   111    2
    17   110   109    1
    18   124   125   ar
    19   124   126   ar
    20   109   112    1
    21    28    26   ar
    22    25    24   ar
    23    96    93    1
    24   103   104   ar
    25   103   105   ar
    26   104   106   ar
    27   125   127   ar
    28    18    17    1
    29   112   113    1
    30   126   128   ar
    31    15    17   ar
    32    15    13   ar
    33    26    24   ar
    34    17    16   ar
    35    24    23    1
    36   105   107   ar
    37   127   128   ar
    38   106   107   ar
    39    93    94    1
    40    93    92    1
    41    94    95    2
    42    13    12   ar
    43   113   114   ar
    44   113   115   ar
    45    92    82   am
    46   114   116   ar
    47    16    14   ar
    48    23    20    1
    49   115   117   ar
    50    20    19    1
    51    20    21    1
    52    82    83    2
    53    82    81    1
    54    19     9   am
    55    12    14   ar
    56    12    11    1
    57    80    81    1
    58    81    84    1
    59   116   118   ar
    60    21    22    2
    61     9     8    1
    62     9    10    2
    63     8    11    1
    64     8     7    1
    65   117   118   ar
    66   137   135   ar
    67    79    77   ar
    68    84    85    1
    69    87    89   ar
    70    87    85   ar
    71    76    77    1
    72    76    73    1
    73   134   135    1
    74   134   133    1
    75   135   136   ar
    76   129   130    1
    77    71    69    1
    78    89    90   ar
    79    85    86   ar
    80    77    78   ar
    81    72    73    1
    82    90    91    1
    83    90    88   ar
    84    86    88   ar
    85    73    74    1
    86   133   130    1
    87   130   131    1
    88    75    74    2
    89   151   150   ar
    90   151   149   ar
    91    69    70    1
    92    69    66    1
    93   131   132    2
    94   150   148   ar
    95    55    56   ar
    96    55    53   ar
    97     1     2    1
    98    29    30    1
    99    56    54   ar
   100     2     3    1
   101     2     5    1
   102     4     3    2
   103   149   147   ar
   104    67    66    1
   105    67    68    2
   106    66    65    1
   107    53    52   ar
   108   148   145   ar
   109     6     5    1
   110    33    30    1
   111    33    34    1
   112    30    31    1
   113    54    52   ar
   114   147   145   ar
   115   147   146   ar
   116    52    51    1
   117   145   143   ar
   118    32    31    2
   119    64    62   ar
   120    63    62   ar
   121    34    35   ar
   122    34    36   ar
   123   146   144   ar
   124    35    37   ar
   125    62    61    1
   126   139   138    1
   127   139   140    1
   128   139   142    1
   129    51    48    1
   130   143   144   ar
   131   143   142    1
   132    36    38   ar
   133   141   140    2
   134    46    45    1
   135    37    39   ar
   136    38    39   ar
   137    48    47    1
   138    48    49    1
   139    61    58    1
   140    39    40    1
   141    59    60    2
   142    59    58    1
   143    58    57    1
   144    45    42    1
   145    50    49    2
   146    41    42    1
   147    42    43    1
   148    43    44    2
