@<TRIPOS>MOLECULE
tmp/2gg3A00.pdb
 148 143 0 0 0
SMALL
GASTEIGER

@<TRIPOS>ATOM
      1  N         -5.5150    6.5500   10.1680 N.3    58  CYS58      -0.1235
      2  CA        -6.2620    5.3380   10.5090 C.3    58  CYS58       0.1677
      3  C         -7.7440    5.6210   10.7470 C.2    58  CYS58       0.2270
      4  O         -8.6090    4.7980   10.4710 O.2    58  CYS58      -0.2867
      5  CB        -5.6330    4.6370   11.7150 C.3    58  CYS58       0.0956
      6  SG        -4.0560    3.8550   11.2650 S.3    58  CYS58      -0.0801
      7  N        -10.5250    4.7910    8.2370 N.3    61  TYR61      -0.1227
      8  CA        -9.9260    4.0040    7.1570 C.3    61  TYR61       0.1736
      9  C        -10.4790    2.5850    7.2270 C.2    61  TYR61       0.2595
     10  O        -10.2960    1.8840    8.2160 O.2    61  TYR61      -0.2718
     11  CB        -8.4000    4.0250    7.2800 C.3    61  TYR61       0.0548
     12  CG        -7.6720    3.1640    6.2730 C.ar   61  TYR61      -0.0200
     13  CD1       -7.6630    3.4610    4.9140 C.ar   61  TYR61      -0.0009
     14  CD2       -6.9890    2.0380    6.6910 C.ar   61  TYR61      -0.0009
     15  CE1       -6.9880    2.6340    4.0050 C.ar   61  TYR61       0.0417
     16  CE2       -6.3140    1.2260    5.8140 C.ar   61  TYR61       0.0417
     17  CZ        -6.3130    1.5180    4.4810 C.ar   61  TYR61       0.1957
     18  OH        -5.6230    0.6640    3.6380 O.3    61  TYR61      -0.2866
     19  N        -11.2150    2.1940    6.1900 N.am   62  HIS62      -0.1975
     20  CA       -11.9570    0.9450    6.2080 C.3    62  HIS62       0.1656
     21  C        -12.8990    0.8600    7.4040 C.2    62  HIS62       0.2291
     22  O        -13.3030   -0.2240    7.8520 O.2    62  HIS62      -0.2864
     23  CB       -11.0150   -0.2540    6.1270 C.3    62  HIS62       0.0771
     24  CG       -10.2530   -0.3390    4.8360 C.ar   62  HIS62       0.0820
     25  ND1      -10.8810   -0.3710    3.6140 N.ar   62  HIS62      -0.2267
     26  CD2       -8.9290   -0.4210    4.5750 C.ar   62  HIS62       0.1154
     27  CE1       -9.9800   -0.4570    2.6540 C.ar   62  HIS62       0.1986
     28  NE2       -8.7880   -0.4970    3.2100 N.ar   62  HIS62      -0.2212
     29  N        -12.1480    2.0120   10.4700 N.3    64  TYR64      -0.1241
     30  CA       -11.4290    1.8380   11.7280 C.3    64  TYR64       0.1605
     31  C        -11.8310    2.9790   12.6610 C.2    64  TYR64       0.2264
     32  O        -11.8620    4.1370   12.2570 O.2    64  TYR64      -0.2867
     33  CB        -9.9180    1.8150   11.4590 C.3    64  TYR64       0.0534
     34  CG        -9.1370    1.5240   12.7240 C.ar   64  TYR64      -0.0201
     35  CD1       -9.0000    0.2360   13.2410 C.ar   64  TYR64      -0.0009
     36  CD2       -8.5530    2.5690   13.4260 C.ar   64  TYR64      -0.0009
     37  CE1       -8.2870    0.0150   14.4120 C.ar   64  TYR64       0.0417
     38  CE2       -7.8490    2.3560   14.5980 C.ar   64  TYR64       0.0417
     39  CZ        -7.7180    1.0840   15.0870 C.ar   64  TYR64       0.1957
     40  OH        -7.0350    0.8320   16.2540 O.3    64  TYR64      -0.2866
     41  N         -3.3690    2.4790   16.4020 N.3    69  CYS69      -0.1235
     42  CA        -3.5850    1.0820   16.7620 C.3    69  CYS69       0.1677
     43  C         -2.7080    0.7360   17.9340 C.2    69  CYS69       0.2270
     44  O         -1.5330    1.0840   17.9250 O.2    69  CYS69      -0.2867
     45  CB        -3.2610    0.1270   15.6130 C.3    69  CYS69       0.0956
     46  SG        -4.1710    0.4300   14.0730 S.3    69  CYS69      -0.0801
     47  N         -3.5610   -4.1840   14.8220 N.3    78  HIS78      -0.1241
     48  CA        -4.8870   -3.5940   14.6780 C.3    78  HIS78       0.1621
     49  C         -5.6970   -3.6120   15.9690 C.2    78  HIS78       0.2264
     50  O         -6.9280   -3.5050   15.9590 O.2    78  HIS78      -0.2867
     51  CB        -5.6620   -4.1860   13.4830 C.3    78  HIS78       0.0745
     52  CG        -4.9240   -4.0930   12.1760 C.ar   78  HIS78       0.0817
     53  ND1       -5.3500   -4.7430   11.0390 N.ar   78  HIS78      -0.2268
     54  CD2       -3.7780   -3.4530   11.8340 C.ar   78  HIS78       0.1154
     55  CE1       -4.5080   -4.4960   10.0500 C.ar   78  HIS78       0.1986
     56  NE2       -3.5480   -3.7070   10.5010 N.ar   78  HIS78      -0.2212
     57  N          1.0330    2.1130   16.9390 N.3    96  ASP96      -0.1239
     58  CA         1.2820    2.3500   15.5240 C.3    96  ASP96       0.1674
     59  C          0.5600    3.6370   15.1620 C.2    96  ASP96       0.2266
     60  O         -0.6550    3.7500   15.3310 O.2    96  ASP96      -0.2867
     61  CB         0.8090    1.1740   14.6670 C.3    96  ASP96       0.1410
     62  CG         1.2680    1.2800   13.2090 C.2    96  ASP96       0.3668
     63  OD1        1.4240    2.4120   12.7010 O.co2  96  ASP96      -0.2456
     64  OD2        1.4390    0.2220   12.5750 O.co2  96  ASP96      -0.2456
     65  N          0.0210    6.7310   12.2720 N.3    98  THR98      -0.1218
     66  CA         0.1020    7.1960   10.8920 C.3    98  THR98       0.1862
     67  C         -0.5920    8.5320   10.7980 C.2    98  THR98       0.2287
     68  O         -1.7710    8.6590   11.1130 O.2    98  THR98      -0.2866
     69  CB        -0.5460    6.2080    9.9090 C.3    98  THR98       0.1770
     70  OG1       -0.0590    4.8890   10.1930 O.3    98  THR98      -0.2211
     71  CG2       -0.1600    6.5790    8.4860 C.3    98  THR98       0.0375
     72  N          4.4810    7.0940    8.9270 N.3   107  ASP107     -0.1239
     73  CA         3.9530    5.8480    9.4820 C.3   107  ASP107      0.1674
     74  C          5.0700    5.1880   10.2740 C.2   107  ASP107      0.2266
     75  O          6.1530    4.8870    9.7500 O.2   107  ASP107     -0.2867
     76  CB         3.5210    4.9510    8.3210 C.3   107  ASP107      0.1410
     77  CG         2.8120    3.6930    8.7370 C.2   107  ASP107      0.3668
     78  OD1        2.5600    2.8960    7.7920 O.co2 107  ASP107     -0.2456
     79  OD2        2.5370    3.5180    9.9390 O.co2 107  ASP107     -0.2456
     80  N          2.3970   -6.7560    5.6180 N.3   168  CYS168     -0.1235
     81  CA         3.6710   -6.3590    5.0260 C.3   168  CYS168      0.1677
     82  C          3.8770   -4.8510    5.1060 C.2   168  CYS168      0.2270
     83  O          2.9480   -4.0830    5.3920 O.2   168  CYS168     -0.2867
     84  CB         3.7420   -6.8220    3.5770 C.3   168  CYS168      0.0956
     85  SG         2.4080   -6.2130    2.5140 S.3   168  CYS168     -0.0801
     86  N          4.9650   -1.2670    3.0420 N.3   170  HIS170     -0.1241
     87  CA         4.2640   -0.7330    1.8880 C.3   170  HIS170      0.1621
     88  C          4.8950    0.5630    1.4440 C.2   170  HIS170      0.2264
     89  O          5.4160    1.3490    2.2360 O.2   170  HIS170     -0.2867
     90  CB         2.7760   -0.4540    2.2420 C.3   170  HIS170      0.0745
     91  CG         2.6100    0.2580    3.5520 C.ar  170  HIS170      0.0817
     92  ND1        2.3940    1.6120    3.6550 N.ar  170  HIS170     -0.2268
     93  CD2        2.6470   -0.2060    4.8240 C.ar  170  HIS170      0.1154
     94  CE1        2.3170    1.9570    4.9300 C.ar  170  HIS170      0.1986
     95  NE2        2.4640    0.8650    5.6620 N.ar  170  HIS170     -0.2212
     96  N         -1.6950    6.1620    1.8190 N.3   176  PHE176     -0.1227
     97  CA        -1.2670    5.4110    2.9950 C.3   176  PHE176      0.1736
     98  C         -0.5130    4.1560    2.5540 C.2   176  PHE176      0.2595
     99  O          0.6540    3.9500    2.9470 O.2   176  PHE176     -0.2718
    100  CB        -2.5300    5.0720    3.8010 C.3   176  PHE176      0.0547
    101  CG        -2.3230    4.4590    5.1690 C.ar  176  PHE176     -0.0202
    102  CD1       -1.1040    4.0250    5.6610 C.ar  176  PHE176     -0.0042
    103  CD2       -3.4430    4.3270    5.9910 C.ar  176  PHE176     -0.0042
    104  CE1       -1.0180    3.4700    6.9440 C.ar  176  PHE176     -0.0003
    105  CE2       -3.3600    3.7800    7.2520 C.ar  176  PHE176     -0.0003
    106  CZ        -2.1470    3.3510    7.7200 C.ar  176  PHE176     -0.0000
    107  N         -1.1660    3.3330    1.7340 N.am  177  HIS177     -0.1975
    108  CA        -0.5590    2.1490    1.1620 C.3   177  HIS177      0.1656
    109  C         -0.4020    2.2990   -0.3380 C.2   177  HIS177      0.2291
    110  O         -1.3950    2.4030   -1.0360 O.2   177  HIS177     -0.2864
    111  CB        -1.3390    0.8840    1.5010 C.3   177  HIS177      0.0771
    112  CG        -1.5720    0.7110    2.9640 C.ar  177  HIS177      0.0820
    113  ND1       -2.6390    1.2900    3.6190 N.ar  177  HIS177     -0.2267
    114  CD2       -0.8590    0.0490    3.9040 C.ar  177  HIS177      0.1154
    115  CE1       -2.5630    0.9940    4.9050 C.ar  177  HIS177      0.1986
    116  NE2       -1.5010    0.2360    5.1020 N.ar  177  HIS177     -0.2212
    117  N          8.2240   -3.0750    8.4410 N.3   203  GLU203     -0.1245
    118  CA         7.3970   -3.2290    9.6090 C.3   203  GLU203      0.1567
    119  C          7.1330   -4.6790   10.0020 C.2   203  GLU203      0.2260
    120  O          5.9910   -5.1180   10.0920 O.2   203  GLU203     -0.2867
    121  CB         6.1070   -2.4340    9.4650 C.3   203  GLU203      0.0388
    122  CG         5.2770   -2.7710    8.2730 C.3   203  GLU203      0.1160
    123  CD         3.9980   -1.9350    8.1740 C.2   203  GLU203      0.3649
    124  OE1        3.0190   -2.2320    8.8710 O.co2 203  GLU203     -0.2457
    125  OE2        3.9510   -0.9630    7.4170 O.co2 203  GLU203     -0.2457
    126  N        -11.5600   -6.6680   13.7510 N.3   220  TRP220     -0.1241
    127  CA       -10.3440   -5.8540   13.6840 C.3   220  TRP220      0.1605
    128  C         -9.1260   -6.5320   14.3130 C.2   220  TRP220      0.2264
    129  O         -8.0460   -6.6220   13.7310 O.2   220  TRP220     -0.2867
    130  CB       -10.6030   -4.5160   14.3850 C.3   220  TRP220      0.0550
    131  CG       -11.4340   -3.5540   13.5700 C.ar  220  TRP220      0.0003
    132  CD1      -12.6840   -3.1020   13.8440 C.ar  220  TRP220      0.0946
    133  CD2      -11.0440   -2.9500   12.3350 C.ar  220  TRP220      0.0152
    134  NE1      -13.1000   -2.2370   12.8650 N.ar  220  TRP220     -0.2442
    135  CE2      -12.1150   -2.1330   11.9170 C.ar  220  TRP220      0.0810
    136  CE3       -9.8830   -3.0110   11.5520 C.ar  220  TRP220      0.0012
    137  CZ2      -12.0610   -1.3840   10.7430 C.ar  220  TRP220      0.0191
    138  CZ3       -9.8360   -2.2680   10.3720 C.ar  220  TRP220      0.0001
    139  CH2      -10.9150   -1.4700    9.9860 C.ar  220  TRP220      0.0015
    140  N          8.2530   -0.3660   13.1970 N.3   234  GLU234     -0.1245
    141  CA         8.0380    0.1810   11.8630 C.3   234  GLU234      0.1567
    142  C          8.7420    1.5030   11.6900 C.2   234  GLU234      0.2260
    143  O          8.6850    2.3500   12.5660 O.2   234  GLU234     -0.2867
    144  CB         6.5430    0.3710   11.5830 C.3   234  GLU234      0.0388
    145  CG         6.2650    1.1040   10.2940 C.3   234  GLU234      0.1160
    146  CD         4.8050    1.1580    9.9650 C.2   234  GLU234      0.3649
    147  OE1        4.4780    1.2490    8.7560 O.co2 234  GLU234     -0.2457
    148  OE2        3.9750    1.1360   10.8820 O.co2 234  GLU234     -0.2457
@<TRIPOS>BOND
     1   110   109    2
     2   109   108    1
     3   108   111    1
     4   108   107    1
     5    88    87    1
     6    88    89    2
     7   111   112    1
     8   107    98   am
     9    96    97    1
    10    87    90    1
    11    87    86    1
    12    90    91    1
    13    85    84    1
    14    98    99    2
    15    98    97    1
    16    27    28   ar
    17    27    25   ar
    18   112   113   ar
    19   112   114   ar
    20    97   100    1
    21    28    26   ar
    22    91    92   ar
    23    91    93   ar
    24    84    81    1
    25    25    24   ar
    26   113   115   ar
    27    18    17    1
    28    92    94   ar
    29   100   101    1
    30   114   116   ar
    31    15    17   ar
    32    15    13   ar
    33    17    16   ar
    34    26    24   ar
    35    93    95   ar
    36    24    23    1
    37   115   116   ar
    38    13    12   ar
    39    94    95   ar
    40    81    82    1
    41    81    80    1
    42    82    83    2
    43   101   102   ar
    44   101   103   ar
    45   102   104   ar
    46    16    14   ar
    47   103   105   ar
    48    23    20    1
    49    19    20    1
    50    19     9   am
    51    20    21    1
    52    12    14   ar
    53    12    11    1
    54   104   106   ar
    55     8     9    1
    56     8    11    1
    57     8     7    1
    58     9    10    2
    59   105   106   ar
    60    21    22    2
    61   125   123   ar
    62    78    77   ar
    63   123   122    1
    64   123   124   ar
    65   122   121    1
    66    76    77    1
    67    76    73    1
    68   117   118    1
    69    71    69    1
    70    77    79   ar
    71   147   146   ar
    72    72    73    1
    73   121   118    1
    74    73    74    1
    75   118   119    1
    76    75    74    2
    77    69    70    1
    78    69    66    1
    79   146   145    1
    80   146   148   ar
    81   139   138   ar
    82   139   137   ar
    83   119   120    2
    84    55    56   ar
    85    55    53   ar
    86     1     2    1
    87   145   144    1
    88   138   136   ar
    89    29    30    1
    90     4     3    2
    91    56    54   ar
    92     2     3    1
    93     2     5    1
    94   137   135   ar
    95    67    66    1
    96    67    68    2
    97    66    65    1
    98    53    52   ar
    99     6     5    1
   100    33    30    1
   101    33    34    1
   102   136   133   ar
   103   144   141    1
   104   142   141    1
   105   142   143    2
   106    30    31    1
   107    54    52   ar
   108   141   140    1
   109   135   133   ar
   110   135   134   ar
   111    52    51    1
   112    32    31    2
   113   133   131   ar
   114    64    62   ar
   115    63    62   ar
   116    34    35   ar
   117    34    36   ar
   118   134   132   ar
   119    62    61    1
   120    35    37   ar
   121    36    38   ar
   122    51    48    1
   123   131   132   ar
   124   131   130    1
   125   127   126    1
   126   127   128    1
   127   127   130    1
   128   129   128    2
   129    46    45    1
   130    37    39   ar
   131    38    39   ar
   132    61    58    1
   133    48    47    1
   134    48    49    1
   135    39    40    1
   136    59    60    2
   137    59    58    1
   138    58    57    1
   139    45    42    1
   140    50    49    2
   141    41    42    1
   142    42    43    1
   143    44    43    2
