@<TRIPOS>MOLECULE
tmp/2gg5A00.pdb
 177 171 0 0 0
SMALL
GASTEIGER

@<TRIPOS>ATOM
      1  N         16.3850    6.7030   15.2280 N.3    58  CYS58      -0.1235
      2  CA        17.1980    5.6870   14.5780 C.3    58  CYS58       0.1677
      3  C         18.7260    5.8440   14.6260 C.2    58  CYS58       0.2270
      4  O         19.4540    4.8720   14.8980 O.2    58  CYS58      -0.2867
      5  CB        16.7670    5.5790   13.1200 C.3    58  CYS58       0.0956
      6  SG        15.3420    4.5700   12.9770 S.3    58  CYS58      -0.0801
      7  N         21.5730    4.9530   17.6030 N.3    61  TYR61      -0.1227
      8  CA        20.9260    4.0300   18.5300 C.3    61  TYR61       0.1736
      9  C         21.4820    2.6020   18.3240 C.2    61  TYR61       0.2595
     10  O         21.2860    1.9900   17.2730 O.2    61  TYR61      -0.2718
     11  CB        19.3830    4.1150   18.3500 C.3    61  TYR61       0.0548
     12  CG        18.6350    3.2460   19.3430 C.ar   61  TYR61      -0.0200
     13  CD1       18.4640    3.6420   20.6610 C.ar   61  TYR61      -0.0009
     14  CD2       18.1650    2.0100   18.9760 C.ar   61  TYR61      -0.0009
     15  CE1       17.8110    2.8540   21.5400 C.ar   61  TYR61       0.0417
     16  CE2       17.5160    1.2150   19.8620 C.ar   61  TYR61       0.0417
     17  CZ        17.3450    1.6340   21.1310 C.ar   61  TYR61       0.1957
     18  OH        16.7180    0.7620   21.9990 O.3    61  TYR61      -0.2866
     19  N         22.1850    2.0810   19.3360 N.am   62  HIS62      -0.1975
     20  CA        23.0380    0.8970   19.2310 C.3    62  HIS62       0.1656
     21  C         23.9470    0.7900   18.0250 C.2    62  HIS62       0.2291
     22  O         24.3450   -0.3090   17.6420 O.2    62  HIS62      -0.2864
     23  CB        22.2040   -0.3810   19.3950 C.3    62  HIS62       0.0771
     24  CG        21.4390   -0.4250   20.6860 C.ar   62  HIS62       0.0820
     25  ND1       22.0370   -0.6800   21.9020 N.ar   62  HIS62      -0.2267
     26  CD2       20.1330   -0.2020   20.9570 C.ar   62  HIS62       0.1154
     27  CE1       21.1310   -0.6350   22.8610 C.ar   62  HIS62       0.1986
     28  NE2       19.9690   -0.3440   22.3140 N.ar   62  HIS62      -0.2212
     29  N         23.1090    1.9490   14.8760 N.3    64  TYR64      -0.1241
     30  CA        22.3220    2.2410   13.7070 C.3    64  TYR64       0.1605
     31  C         22.8340    3.4190   12.9250 C.2    64  TYR64       0.2264
     32  O         22.8660    4.5460   13.4120 O.2    64  TYR64      -0.2867
     33  CB        20.7970    2.2940   13.9560 C.3    64  TYR64       0.0534
     34  CG        20.0550    1.9070   12.6880 C.ar   64  TYR64      -0.0201
     35  CD1       20.0080    0.5950   12.2660 C.ar   64  TYR64      -0.0009
     36  CD2       19.4340    2.8790   11.8810 C.ar   64  TYR64      -0.0009
     37  CE1       19.3260    0.2350   11.0980 C.ar   64  TYR64       0.0417
     38  CE2       18.7910    2.5210   10.6880 C.ar   64  TYR64       0.0417
     39  CZ        18.7440    1.1940   10.3210 C.ar   64  TYR64       0.1957
     40  OH        18.1000    0.7800    9.1730 O.3    64  TYR64      -0.2866
     41  N         14.7020    2.7820    9.2340 N.3    69  CYS69      -0.1235
     42  CA        14.9290    1.4080    8.7870 C.3    69  CYS69       0.1677
     43  C         13.9890    1.1730    7.6600 C.2    69  CYS69       0.2270
     44  O         12.9150    1.7730    7.6120 O.2    69  CYS69      -0.2867
     45  CB        14.7270    0.3280    9.8800 C.3    69  CYS69       0.0956
     46  SG        15.2240    0.9800   11.4840 S.3    69  CYS69      -0.0801
     47  N         14.9280   -3.8580   10.7280 N.3    78  HIS78      -0.1241
     48  CA        16.2230   -3.1730   10.7000 C.3    78  HIS78       0.1621
     49  C         17.0440   -3.2720    9.4140 C.2    78  HIS78       0.2264
     50  O         18.2720   -3.2450    9.4620 O.2    78  HIS78      -0.2867
     51  CB        17.0790   -3.4150   11.9670 C.3    78  HIS78       0.0745
     52  CG        16.2730   -3.6900   13.2050 C.ar   78  HIS78       0.0817
     53  ND1       16.6730   -4.5790   14.1790 N.ar   78  HIS78      -0.2268
     54  CD2       15.0830   -3.1940   13.6230 C.ar   78  HIS78       0.1154
     55  CE1       15.7660   -4.6280   15.1410 C.ar   78  HIS78       0.1986
     56  NE2       14.7840   -3.8060   14.8190 N.ar   78  HIS78      -0.2212
     57  N         10.4150    2.4400    8.6790 N.3    96  ASP96      -0.1239
     58  CA        10.0190    2.6790   10.0740 C.3    96  ASP96       0.1674
     59  C         10.6460    3.9840   10.5120 C.2    96  ASP96       0.2266
     60  O         11.8660    4.1360   10.5150 O.2    96  ASP96      -0.2867
     61  CB        10.3970    1.5000   11.0120 C.3    96  ASP96       0.1410
     62  CG         9.9450    1.7150   12.4420 C.2    96  ASP96       0.3668
     63  OD1        9.8800    2.8870   12.8300 O.co2  96  ASP96      -0.2456
     64  OD2        9.6070    0.7530   13.1970 O.co2  96  ASP96      -0.2456
     65  N         11.1450    6.9540   13.3100 N.3    98  THR98      -0.1218
     66  CA        10.9610    7.2960   14.7170 C.3    98  THR98       0.1862
     67  C         11.6470    8.6260   14.8720 C.2    98  THR98       0.2287
     68  O         12.7320    8.7820   14.3600 O.2    98  THR98      -0.2866
     69  CB        11.6950    6.2960   15.6640 C.3    98  THR98       0.1770
     70  OG1       11.4140    4.9630   15.2600 O.3    98  THR98      -0.2211
     71  CG2       11.2380    6.4850   17.0880 C.3    98  THR98       0.0375
     72  N          6.6760    7.2400   16.7080 N.3   107  ASP107     -0.1239
     73  CA         7.2950    6.0200   16.2170 C.3   107  ASP107      0.1674
     74  C          6.2120    5.3490   15.4270 C.2   107  ASP107      0.2266
     75  O          5.1340    5.0110   15.9440 O.2   107  ASP107     -0.2867
     76  CB         7.8100    5.2270   17.4470 C.3   107  ASP107      0.1410
     77  CG         8.5010    3.9020   17.1470 C.2   107  ASP107      0.3668
     78  OD1        8.6210    3.1400   18.1370 O.co2 107  ASP107     -0.2456
     79  OD2        8.9460    3.5400   16.0310 O.co2 107  ASP107     -0.2456
     80  N         10.5940   -9.3970   18.7170 N.3   167  TYR167     -0.1227
     81  CA        10.2720   -8.0020   18.8140 C.3   167  TYR167      0.1736
     82  C          8.8710   -7.7400   19.3860 C.2   167  TYR167      0.2595
     83  O          7.9770   -8.5900   19.3910 O.2   167  TYR167     -0.2718
     84  CB        10.5750   -7.3640   17.4660 C.3   167  TYR167      0.0548
     85  CG        12.0340   -7.5710   17.0800 C.ar  167  TYR167     -0.0200
     86  CD1       13.0540   -6.8640   17.7160 C.ar  167  TYR167     -0.0009
     87  CD2       12.3920   -8.4620   16.0680 C.ar  167  TYR167     -0.0009
     88  CE1       14.3980   -7.0550   17.3620 C.ar  167  TYR167      0.0417
     89  CE2       13.7300   -8.6530   15.6970 C.ar  167  TYR167      0.0417
     90  CZ        14.7330   -7.9560   16.3480 C.ar  167  TYR167      0.1957
     91  OH        16.0630   -8.1530   15.9720 O.3   167  TYR167     -0.2866
     92  N          8.6930   -6.5540   19.9430 N.am  168  CYS168     -0.1970
     93  CA         7.4370   -6.2030   20.5710 C.3   168  CYS168      0.1712
     94  C          7.2190   -4.6880   20.5420 C.2   168  CYS168      0.2296
     95  O          8.1820   -3.9390   20.4060 O.2   168  CYS168     -0.2864
     96  CB         7.4290   -6.7560   21.9830 C.3   168  CYS168      0.0983
     97  SG         8.7060   -6.1410   23.0080 S.3   168  CYS168     -0.0798
     98  N          6.1000   -1.1390   22.5260 N.3   170  HIS170     -0.1241
     99  CA         6.8370   -0.6500   23.6880 C.3   170  HIS170      0.1621
    100  C          6.2250    0.7010   24.0870 C.2   170  HIS170      0.2264
    101  O          5.8690    1.5430   23.2420 O.2   170  HIS170     -0.2867
    102  CB         8.3410   -0.4930   23.2960 C.3   170  HIS170      0.0745
    103  CG         8.5380    0.3190   22.0460 C.ar  170  HIS170      0.0817
    104  ND1        8.5910    1.6980   22.0750 N.ar  170  HIS170     -0.2268
    105  CD2        8.6290   -0.0340   20.7350 C.ar  170  HIS170      0.1154
    106  CE1        8.7340    2.1650   20.8400 C.ar  170  HIS170      0.1986
    107  NE2        8.7270    1.1370   20.0060 N.ar  170  HIS170     -0.2212
    108  N         12.7310    6.3900   23.5410 N.3   176  PHE176     -0.1227
    109  CA        12.3870    5.4270   22.4620 C.3   176  PHE176      0.1736
    110  C         11.5800    4.2640   23.0750 C.2   176  PHE176      0.2595
    111  O         10.3980    4.0620   22.7360 O.2   176  PHE176     -0.2718
    112  CB        13.6800    4.9830   21.7560 C.3   176  PHE176      0.0547
    113  CG        13.5200    4.3740   20.3660 C.ar  176  PHE176     -0.0202
    114  CD1       12.3040    3.8770   19.8820 C.ar  176  PHE176     -0.0042
    115  CD2       14.6280    4.2750   19.5390 C.ar  176  PHE176     -0.0042
    116  CE1       12.2080    3.3180   18.5900 C.ar  176  PHE176     -0.0003
    117  CE2       14.5430    3.7200   18.2300 C.ar  176  PHE176     -0.0003
    118  CZ        13.3410    3.2350   17.7670 C.ar  176  PHE176     -0.0000
    119  N         12.2030    3.5190   24.0010 N.am  177  HIS177     -0.1975
    120  CA        11.6490    2.2820   24.5550 C.3   177  HIS177      0.1656
    121  C         11.4900    2.3890   26.0620 C.2   177  HIS177      0.2291
    122  O         12.4650    2.6540   26.7710 O.2   177  HIS177     -0.2864
    123  CB        12.5980    1.1310   24.2460 C.3   177  HIS177      0.0771
    124  CG        12.7620    0.8430   22.7830 C.ar  177  HIS177      0.0820
    125  ND1       13.6040    1.5670   21.9630 N.ar  177  HIS177     -0.2267
    126  CD2       12.1910   -0.0880   21.9900 C.ar  177  HIS177      0.1154
    127  CE1       13.5450    1.0960   20.7290 C.ar  177  HIS177      0.1986
    128  NE2       12.6970    0.0890   20.7210 N.ar  177  HIS177     -0.2212
    129  N          2.9790   -2.9590   17.1020 N.3   203  GLU203     -0.1245
    130  CA         3.7510   -3.0710   15.9000 C.3   203  GLU203      0.1567
    131  C          4.1320   -4.4990   15.5140 C.2   203  GLU203      0.2260
    132  O          5.3330   -4.8390   15.3950 O.2   203  GLU203     -0.2867
    133  CB         5.0070   -2.2000   16.0490 C.3   203  GLU203      0.0388
    134  CG         5.6600   -2.2460   17.4130 C.3   203  GLU203      0.1160
    135  CD         6.8670   -1.3220   17.5020 C.2   203  GLU203      0.3649
    136  OE1        7.5430   -1.1720   16.4890 O.co2 203  GLU203     -0.2457
    137  OE2        7.1750   -0.7110   18.5480 O.co2 203  GLU203     -0.2457
    138  N          5.1760   -7.8200   13.9420 N.3   205  MET205     -0.1245
    139  CA         5.8090   -8.4050   12.7250 C.3   205  MET205      0.1570
    140  C          5.2320   -9.7500   12.3460 C.2   205  MET205      0.2261
    141  O          5.1270  -10.6620   13.1940 O.2   205  MET205     -0.2867
    142  CB         7.3410   -8.4840   12.7950 C.3   205  MET205      0.0387
    143  CG         8.0350   -7.1490   13.0690 C.3   205  MET205      0.0595
    144  SD         9.6900   -7.3650   13.7150 S.3   205  MET205     -0.1393
    145  CE        10.0150   -5.8240   14.5960 C.3   205  MET205      0.0692
    146  N         22.7690   -6.3810   11.6180 N.3   220  TRP220     -0.1241
    147  CA        21.5790   -5.5120   11.5840 C.3   220  TRP220      0.1605
    148  C         20.3590   -6.2000   10.9300 C.2   220  TRP220      0.2264
    149  O         19.3480   -6.4280   11.5630 O.2   220  TRP220     -0.2867
    150  CB        21.9090   -4.1420   10.9420 C.3   220  TRP220      0.0550
    151  CG        22.5970   -3.2250   11.9230 C.ar  220  TRP220      0.0003
    152  CD1       23.8660   -2.7570   11.8510 C.ar  220  TRP220      0.0946
    153  CD2       22.0380   -2.6720   13.1310 C.ar  220  TRP220      0.0152
    154  NE1       24.1470   -1.9430   12.9360 N.ar  220  TRP220     -0.2442
    155  CE2       23.0350   -1.8790   13.7330 C.ar  220  TRP220      0.0810
    156  CE3       20.7760   -2.7460   13.7470 C.ar  220  TRP220      0.0012
    157  CZ2       22.8090   -1.1830   14.9220 C.ar  220  TRP220      0.0191
    158  CZ3       20.5580   -2.0560   14.9220 C.ar  220  TRP220      0.0001
    159  CH2       21.5630   -1.2880   15.4980 C.ar  220  TRP220      0.0015
    160  N          5.1180   -5.6110    8.5670 N.3   232  GLN232     -0.1245
    161  CA         4.9250   -4.8460    9.8120 C.3   232  GLN232      0.1566
    162  C          4.2400   -3.4870    9.5730 C.2   232  GLN232      0.2260
    163  O          4.5200   -2.8080    8.5800 O.2   232  GLN232     -0.2867
    164  CB         6.2850   -4.6010   10.4890 C.3   232  GLN232      0.0367
    165  CG         6.1650   -4.0590   11.9650 C.3   232  GLN232      0.0905
    166  CD         7.5270   -3.7430   12.6180 C.2   232  GLN232      0.2608
    167  OE1        8.5000   -3.4190   11.9430 O.2   232  GLN232     -0.2717
    168  NE2        7.5760   -3.8210   13.9330 N.am  232  GLN232     -0.0878
    169  N          3.0150   -0.1170   12.3670 N.3   234  GLU234     -0.1245
    170  CA         3.1660    0.2990   13.7360 C.3   234  GLU234      0.1567
    171  C          2.4570    1.5980   14.0060 C.2   234  GLU234      0.2260
    172  O          2.4950    2.5100   13.1810 O.2   234  GLU234     -0.2867
    173  CB         4.6620    0.5640   13.9800 C.3   234  GLU234      0.0388
    174  CG         4.8970    1.5010   15.1510 C.3   234  GLU234      0.1160
    175  CD         6.3570    1.5220   15.5570 C.2   234  GLU234      0.3649
    176  OE1        6.6370    1.8220   16.7250 O.co2 234  GLU234     -0.2457
    177  OE2        7.2150    1.2260   14.7200 O.co2 234  GLU234     -0.2457
@<TRIPOS>BOND
     1    44    43    2
     2    43    42    1
     3   160   161    1
     4   163   162    2
     5    57    58    1
     6    42    41    1
     7    42    45    1
     8    40    39    1
     9    49    50    2
    10    49    48    1
    11   162   161    1
    12   161   164    1
    13    45    46    1
    14    58    59    1
    15    58    61    1
    16    39    38   ar
    17    39    37   ar
    18   164   165    1
    19    59    60    2
    20    38    36   ar
    21    48    47    1
    22    48    51    1
    23   148   149    2
    24   148   147    1
    25   150   147    1
    26   150   151    1
    27    61    62    1
    28    37    35   ar
    29   147   146    1
    30   152   151   ar
    31   152   154   ar
    32    36    34   ar
    33   151   153   ar
    34   167   166    2
    35   165   166    1
    36    51    52    1
    37    35    34   ar
    38   140   139    1
    39   140   141    2
    40   169   170    1
    41    62    63   ar
    42    62    64   ar
    43   166   168   am
    44    34    33    1
    45   139   142    1
    46   139   138    1
    47   142   143    1
    48    31    32    2
    49    31    30    1
    50   154   155   ar
    51     6     5    1
    52   143   144    1
    53     5     2    1
    54   153   155   ar
    55   153   156   ar
    56   172   171    2
    57    52    54   ar
    58    52    53   ar
    59    65    66    1
    60    54    56   ar
    61    30    33    1
    62    30    29    1
    63   144   145    1
    64   155   157   ar
    65   170   173    1
    66   170   171    1
    67   156   158   ar
    68   173   174    1
    69    53    55   ar
    70    68    67    2
    71     2     3    1
    72     2     1    1
    73     3     4    2
    74    66    67    1
    75    66    69    1
    76   177   175   ar
    77    56    55   ar
    78   158   159   ar
    79   157   159   ar
    80   174   175    1
    81    70    69    1
    82   132   131    2
    83    74    75    2
    84    74    73    1
    85   131   130    1
    86   175   176   ar
    87    69    71    1
    88    89    87   ar
    89    89    90   ar
    90   130   133    1
    91   130   129    1
    92    91    90    1
    93    79    77   ar
    94   133   134    1
    95    87    85   ar
    96    73    72    1
    97    73    76    1
    98    90    88   ar
    99   136   135   ar
   100    85    84    1
   101    85    86   ar
   102    77    76    1
   103    77    78   ar
   104    10     9    2
   105    88    86   ar
   106   134   135    1
   107    84    81    1
   108   135   137   ar
   109     7     8    1
   110    22    21    2
   111   118   117   ar
   112   118   116   ar
   113    21    20    1
   114   117   115   ar
   115     9     8    1
   116     9    19   am
   117    11     8    1
   118    11    12    1
   119   116   114   ar
   120    80    81    1
   121    81    82    1
   122    14    12   ar
   123    14    16   ar
   124    20    19    1
   125    20    23    1
   126    12    13   ar
   127    82    83    2
   128    82    92   am
   129    23    24    1
   130   115   113   ar
   131    16    17   ar
   132   114   113   ar
   133    92    93    1
   134   107   105   ar
   135   107   106   ar
   136   113   112    1
   137    95    94    2
   138    94    93    1
   139    93    96    1
   140    13    15   ar
   141    24    26   ar
   142    24    25   ar
   143   128   127   ar
   144   128   126   ar
   145   127   125   ar
   146   105   103   ar
   147   106   104   ar
   148    26    28   ar
   149    17    15   ar
   150    17    18    1
   151   112   109    1
   152    25    27   ar
   153   125   124   ar
   154    96    97    1
   155   126   124   ar
   156   103   104   ar
   157   103   102    1
   158    28    27   ar
   159   109   110    1
   160   109   108    1
   161    98    99    1
   162   111   110    2
   163   124   123    1
   164   110   119   am
   165   101   100    2
   166   102    99    1
   167    99   100    1
   168   119   120    1
   169   123   120    1
   170   120   121    1
   171   121   122    2
