@<TRIPOS>MOLECULE
tmp/2gg7A00.pdb
 160 156 0 0 0
SMALL
GASTEIGER

@<TRIPOS>ATOM
      1  N         -5.4750    6.4210   10.2550 N.3    58  CYS58      -0.1235
      2  CA        -6.2160    5.2150   10.6260 C.3    58  CYS58       0.1677
      3  C         -7.7050    5.4870   10.8460 C.2    58  CYS58       0.2270
      4  O         -8.5560    4.6400   10.5930 O.2    58  CYS58      -0.2867
      5  CB        -5.5870    4.5610   11.8590 C.3    58  CYS58       0.0956
      6  SG        -3.9570    3.8560   11.4670 S.3    58  CYS58      -0.0801
      7  N        -10.5230    4.6570    8.3030 N.3    61  TYR61      -0.1227
      8  CA        -9.9490    3.8370    7.2390 C.3    61  TYR61       0.1736
      9  C        -10.4980    2.4250    7.3200 C.2    61  TYR61       0.2595
     10  O        -10.3000    1.7080    8.3060 O.2    61  TYR61      -0.2718
     11  CB        -8.4280    3.8260    7.3690 C.3    61  TYR61       0.0548
     12  CG        -7.6920    2.9580    6.3620 C.ar   61  TYR61      -0.0200
     13  CD1       -7.7410    3.2250    5.0040 C.ar   61  TYR61      -0.0009
     14  CD2       -6.9320    1.8800    6.7740 C.ar   61  TYR61      -0.0009
     15  CE1       -7.0690    2.4320    4.0820 C.ar   61  TYR61       0.0417
     16  CE2       -6.2580    1.0770    5.8660 C.ar   61  TYR61       0.0417
     17  CZ        -6.3240    1.3530    4.5210 C.ar   61  TYR61       0.1957
     18  OH        -5.6410    0.5240    3.6590 O.3    61  TYR61      -0.2866
     19  N        -11.2160    2.0400    6.2640 N.am   62  HIS62      -0.1975
     20  CA       -12.0180    0.8320    6.2390 C.3    62  HIS62       0.1656
     21  C        -12.9820    0.7800    7.4270 C.2    62  HIS62       0.2291
     22  O        -13.4240   -0.2810    7.8430 O.2    62  HIS62      -0.2864
     23  CB       -11.1080   -0.3900    6.1910 C.3    62  HIS62       0.0771
     24  CG       -10.3050   -0.5110    4.9310 C.ar   62  HIS62       0.0820
     25  ND1      -10.8590   -0.4330    3.6700 N.ar   62  HIS62      -0.2267
     26  CD2       -8.9860   -0.7470    4.7440 C.ar   62  HIS62       0.1154
     27  CE1       -9.9120   -0.5930    2.7630 C.ar   62  HIS62       0.1986
     28  NE2       -8.7650   -0.7800    3.3890 N.ar   62  HIS62      -0.2212
     29  N        -12.1850    1.9300   10.5170 N.3    64  TYR64      -0.1241
     30  CA       -11.4800    1.7870   11.7960 C.3    64  TYR64       0.1605
     31  C        -11.8630    2.9320   12.7310 C.2    64  TYR64       0.2264
     32  O        -11.8840    4.0880   12.3270 O.2    64  TYR64      -0.2867
     33  CB        -9.9740    1.7310   11.5580 C.3    64  TYR64       0.0534
     34  CG        -9.1950    1.4070   12.8110 C.ar   64  TYR64      -0.0201
     35  CD1       -9.0800    0.1050   13.2960 C.ar   64  TYR64      -0.0009
     36  CD2       -8.5840    2.4220   13.5370 C.ar   64  TYR64      -0.0009
     37  CE1       -8.3620   -0.1620   14.4730 C.ar   64  TYR64       0.0417
     38  CE2       -7.8680    2.1730   14.7010 C.ar   64  TYR64       0.0417
     39  CZ        -7.7630    0.8870   15.1570 C.ar   64  TYR64       0.1957
     40  OH        -7.0680    0.6990   16.3260 O.3    64  TYR64      -0.2866
     41  N         -3.4220    2.5140   16.4050 N.3    69  CYS69      -0.1235
     42  CA        -3.6360    1.1130   16.7410 C.3    69  CYS69       0.1677
     43  C         -2.7640    0.7750   17.9310 C.2    69  CYS69       0.2270
     44  O         -1.5880    1.1410   17.9810 O.2    69  CYS69      -0.2867
     45  CB        -3.2400    0.1840   15.6020 C.3    69  CYS69       0.0956
     46  SG        -4.1280    0.4400   14.0550 S.3    69  CYS69      -0.0801
     47  N         -3.5730   -4.1680   14.9090 N.3    78  HIS78      -0.1241
     48  CA        -4.8780   -3.5520   14.7370 C.3    78  HIS78       0.1621
     49  C         -5.7190   -3.5730   15.9970 C.2    78  HIS78       0.2264
     50  O         -6.9310   -3.4120   15.9470 O.2    78  HIS78      -0.2867
     51  CB        -5.6450   -4.1090   13.5380 C.3    78  HIS78       0.0745
     52  CG        -4.8720   -4.0590   12.2580 C.ar   78  HIS78       0.0817
     53  ND1       -5.2670   -4.7580   11.1380 N.ar   78  HIS78      -0.2268
     54  CD2       -3.7150   -3.4340   11.9280 C.ar   78  HIS78       0.1154
     55  CE1       -4.3890   -4.5560   10.1700 C.ar   78  HIS78       0.1986
     56  NE2       -3.4420   -3.7500   10.6170 N.ar   78  HIS78      -0.2212
     57  N          0.9820    2.1800   17.0020 N.3    96  ASP96      -0.1239
     58  CA         1.2220    2.4470   15.5870 C.3    96  ASP96       0.1674
     59  C          0.5330    3.7610   15.2400 C.2    96  ASP96       0.2266
     60  O         -0.6810    3.8940   15.3870 O.2    96  ASP96      -0.2867
     61  CB         0.7230    1.2850   14.7340 C.3    96  ASP96       0.1410
     62  CG         1.2200    1.3700   13.3100 C.2    96  ASP96       0.3668
     63  OD1        1.3050    2.4760   12.7430 O.co2  96  ASP96      -0.2456
     64  OD2        1.5300    0.3490   12.6990 O.co2  96  ASP96      -0.2456
     65  N          0.0630    6.7640   12.3670 N.3    98  THR98      -0.1218
     66  CA         0.1100    7.1620   10.9740 C.3    98  THR98       0.1862
     67  C         -0.6060    8.4900   10.8670 C.2    98  THR98       0.2287
     68  O         -1.7950    8.5750   11.1540 O.2    98  THR98      -0.2866
     69  CB        -0.5640    6.1230   10.0550 C.3    98  THR98       0.1770
     70  OG1       -0.1870    4.7850   10.4150 O.3    98  THR98      -0.2211
     71  CG2       -0.2130    6.4190    8.6080 C.3    98  THR98       0.0375
     72  N          4.5150    7.1460    8.9790 N.3   107  ASP107     -0.1239
     73  CA         3.9960    5.8950    9.5300 C.3   107  ASP107      0.1674
     74  C          5.0830    5.2100   10.3330 C.2   107  ASP107      0.2266
     75  O          6.1670    4.9160    9.8200 O.2   107  ASP107     -0.2867
     76  CB         3.5430    5.0190    8.3710 C.3   107  ASP107      0.1410
     77  CG         2.8340    3.7780    8.7860 C.2   107  ASP107      0.3668
     78  OD1        2.5000    3.6350    9.9710 O.co2 107  ASP107     -0.2456
     79  OD2        2.6070    2.9510    7.8890 O.co2 107  ASP107     -0.2456
     80  N          0.6160   -9.6300    6.5990 N.3   167  TYR167     -0.1227
     81  CA         0.8180   -8.1890    6.6370 C.3   167  TYR167      0.1736
     82  C          2.2200   -7.8820    6.1600 C.2   167  TYR167      0.2595
     83  O          3.1010   -8.7340    6.2750 O.2   167  TYR167     -0.2718
     84  CB         0.6090   -7.7070    8.0710 C.3   167  TYR167      0.0548
     85  CG        -0.7460   -8.1600    8.5230 C.ar  167  TYR167     -0.0200
     86  CD1       -0.9110   -9.2810    9.3230 C.ar  167  TYR167     -0.0009
     87  CD2       -1.8750   -7.5020    8.0690 C.ar  167  TYR167     -0.0009
     88  CE1       -2.1830   -9.7050    9.6910 C.ar  167  TYR167      0.0417
     89  CE2       -3.1400   -7.9150    8.4240 C.ar  167  TYR167      0.0417
     90  CZ        -3.2890   -9.0070    9.2400 C.ar  167  TYR167      0.1957
     91  OH        -4.5570   -9.4110    9.5890 O.3   167  TYR167     -0.2866
     92  N          2.4240   -6.6700    5.6530 N.am  168  CYS168     -0.1970
     93  CA         3.6860   -6.2940    5.0440 C.3   168  CYS168      0.1712
     94  C          3.8940   -4.7950    5.1380 C.2   168  CYS168      0.2296
     95  O          2.9600   -4.0470    5.4250 O.2   168  CYS168     -0.2864
     96  CB         3.6820   -6.7880    3.5980 C.3   168  CYS168      0.0983
     97  SG         2.3870   -6.1140    2.5620 S.3   168  CYS168     -0.0798
     98  N          4.9640   -1.2120    3.0910 N.3   170  HIS170     -0.1241
     99  CA         4.2620   -0.6200    1.9510 C.3   170  HIS170      0.1621
    100  C          4.9160    0.6810    1.5360 C.2   170  HIS170      0.2264
    101  O          5.4020    1.4520    2.3410 O.2   170  HIS170     -0.2867
    102  CB         2.7860   -0.3410    2.3090 C.3   170  HIS170      0.0745
    103  CG         2.5980    0.3450    3.6260 C.ar  170  HIS170      0.0817
    104  ND1        2.3730    1.6950    3.7660 N.ar  170  HIS170     -0.2268
    105  CD2        2.6240   -0.1610    4.8830 C.ar  170  HIS170      0.1154
    106  CE1        2.2910    1.9820    5.0590 C.ar  170  HIS170      0.1986
    107  NE2        2.4410    0.8740    5.7670 N.ar  170  HIS170     -0.2212
    108  N         -1.7240    6.1600    1.9430 N.3   176  PHE176     -0.1227
    109  CA        -1.2680    5.4120    3.1230 C.3   176  PHE176      0.1736
    110  C         -0.4950    4.1800    2.6430 C.2   176  PHE176      0.2595
    111  O          0.6590    3.9700    3.0260 O.2   176  PHE176     -0.2718
    112  CB        -2.5360    5.0590    3.9250 C.3   176  PHE176      0.0547
    113  CG        -2.3490    4.3920    5.2670 C.ar  176  PHE176     -0.0202
    114  CD1       -1.1320    3.9470    5.7650 C.ar  176  PHE176     -0.0042
    115  CD2       -3.4880    4.2080    6.0470 C.ar  176  PHE176     -0.0042
    116  CE1       -1.0640    3.3380    7.0140 C.ar  176  PHE176     -0.0003
    117  CE2       -3.4250    3.5910    7.2860 C.ar  176  PHE176     -0.0003
    118  CZ        -2.2080    3.1600    7.7730 C.ar  176  PHE176     -0.0000
    119  N         -1.1390    3.3790    1.7980 N.am  177  HIS177     -0.1975
    120  CA        -0.5390    2.2080    1.1870 C.3   177  HIS177      0.1656
    121  C         -0.4230    2.4290   -0.3120 C.2   177  HIS177      0.2291
    122  O         -1.4190    2.5770   -1.0170 O.2   177  HIS177     -0.2864
    123  CB        -1.3270    0.9300    1.4650 C.3   177  HIS177      0.0771
    124  CG        -1.5440    0.6980    2.9240 C.ar  177  HIS177      0.0820
    125  ND1       -2.5800    1.2930    3.6120 N.ar  177  HIS177     -0.2267
    126  CD2       -0.8370   -0.0120    3.8350 C.ar  177  HIS177      0.1154
    127  CE1       -2.5120    0.9460    4.8840 C.ar  177  HIS177      0.1986
    128  NE2       -1.4590    0.1610    5.0470 N.ar  177  HIS177     -0.2212
    129  N          8.2450   -3.0740    8.4640 N.3   203  GLU203     -0.1245
    130  CA         7.4670   -3.2310    9.6860 C.3   203  GLU203      0.1567
    131  C          7.1300   -4.6830   10.0250 C.2   203  GLU203      0.2260
    132  O          5.9750   -5.0890   10.1030 O.2   203  GLU203     -0.2867
    133  CB         6.2200   -2.3450    9.6550 C.3   203  GLU203      0.0388
    134  CG         5.3580   -2.4590    8.4160 C.3   203  GLU203      0.1160
    135  CD         4.1670   -1.5360    8.5010 C.2   203  GLU203      0.3649
    136  OE1        3.6380   -1.4080    9.6340 O.co2 203  GLU203     -0.2457
    137  OE2        3.7810   -0.9450    7.4580 O.co2 203  GLU203     -0.2457
    138  N        -11.6120   -6.6830   13.7410 N.3   220  TRP220     -0.1241
    139  CA       -10.3950   -5.8670   13.7110 C.3   220  TRP220      0.1605
    140  C         -9.1780   -6.5260   14.3580 C.2   220  TRP220      0.2264
    141  O         -8.0990   -6.5720   13.7810 O.2   220  TRP220     -0.2867
    142  CB       -10.6490   -4.5320   14.4180 C.3   220  TRP220      0.0550
    143  CG       -11.5240   -3.5970   13.6580 C.ar  220  TRP220      0.0003
    144  CD1      -12.7430   -3.1150   14.0220 C.ar  220  TRP220      0.0946
    145  CD2      -11.2310   -3.0180   12.3870 C.ar  220  TRP220      0.0152
    146  NE1      -13.2270   -2.2670   13.0490 N.ar  220  TRP220     -0.2442
    147  CE2      -12.3080   -2.1870   12.0340 C.ar  220  TRP220      0.0810
    148  CE3      -10.1390   -3.1220   11.5220 C.ar  220  TRP220      0.0012
    149  CZ2      -12.3260   -1.4680   10.8300 C.ar  220  TRP220      0.0191
    150  CZ3      -10.1520   -2.4220   10.3460 C.ar  220  TRP220      0.0001
    151  CH2      -11.2350   -1.6060   10.0050 C.ar  220  TRP220      0.0015
    152  N          8.2110   -0.3790   13.2410 N.3   234  GLU234     -0.1245
    153  CA         8.0310    0.1740   11.9000 C.3   234  GLU234      0.1567
    154  C          8.7400    1.5090   11.7510 C.2   234  GLU234      0.2260
    155  O          8.6810    2.3590   12.6340 O.2   234  GLU234     -0.2867
    156  CB         6.5580    0.4080   11.5860 C.3   234  GLU234      0.0388
    157  CG         6.2990    1.1800   10.3020 C.3   234  GLU234      0.1160
    158  CD         4.8110    1.2920   10.0130 C.2   234  GLU234      0.3649
    159  OE1        4.0160    1.3370   10.9830 O.co2 234  GLU234     -0.2457
    160  OE2        4.4200    1.3250    8.8350 O.co2 234  GLU234     -0.2457
@<TRIPOS>BOND
     1   122   121    2
     2   121   120    1
     3   120   123    1
     4   120   119    1
     5   123   124    1
     6   100    99    1
     7   100   101    2
     8   119   110   am
     9   108   109    1
    10    99   102    1
    11    99    98    1
    12   102   103    1
    13    97    96    1
    14   110   111    2
    15   110   109    1
    16    27    28   ar
    17    27    25   ar
    18   124   125   ar
    19   124   126   ar
    20   109   112    1
    21    28    26   ar
    22    96    93    1
    23   125   127   ar
    24   103   104   ar
    25   103   105   ar
    26    18    17    1
    27    25    24   ar
    28   104   106   ar
    29   126   128   ar
    30   112   113    1
    31    15    17   ar
    32    15    13   ar
    33    17    16   ar
    34    26    24   ar
    35   105   107   ar
    36   127   128   ar
    37    24    23    1
    38    13    12   ar
    39    93    94    1
    40    93    92    1
    41   106   107   ar
    42    94    95    2
    43   113   114   ar
    44   113   115   ar
    45    92    82   am
    46   114   116   ar
    47    16    14   ar
    48   115   117   ar
    49    82    83    2
    50    82    81    1
    51    23    20    1
    52    20    19    1
    53    20    21    1
    54    19     9   am
    55    12    14   ar
    56    12    11    1
    57    80    81    1
    58    81    84    1
    59   116   118   ar
    60     8     9    1
    61     8    11    1
    62     8     7    1
    63   117   118   ar
    64     9    10    2
    65    21    22    2
    66   137   135   ar
    67    79    77   ar
    68    87    89   ar
    69    87    85   ar
    70    84    85    1
    71    76    77    1
    72    76    73    1
    73   134   135    1
    74   134   133    1
    75    89    90   ar
    76   129   130    1
    77   135   136   ar
    78    85    86   ar
    79    71    69    1
    80    77    78   ar
    81   160   158   ar
    82    72    73    1
    83    90    91    1
    84    90    88   ar
    85    86    88   ar
    86    73    74    1
    87   133   130    1
    88   130   131    1
    89    75    74    2
    90   151   150   ar
    91   151   149   ar
    92   158   157    1
    93   158   159   ar
    94   131   132    2
    95    69    70    1
    96    69    66    1
    97    55    56   ar
    98    55    53   ar
    99     1     2    1
   100   157   156    1
   101   150   148   ar
   102    29    30    1
   103     4     3    2
   104    56    54   ar
   105     2     3    1
   106     2     5    1
   107   149   147   ar
   108    67    66    1
   109    67    68    2
   110    66    65    1
   111    53    52   ar
   112     6     5    1
   113   148   145   ar
   114    33    30    1
   115    33    34    1
   116   156   153    1
   117   154   153    1
   118   154   155    2
   119    30    31    1
   120   153   152    1
   121    54    52   ar
   122   147   145   ar
   123   147   146   ar
   124    52    51    1
   125    32    31    2
   126   145   143   ar
   127    64    62   ar
   128    63    62   ar
   129    34    35   ar
   130    34    36   ar
   131   146   144   ar
   132    35    37   ar
   133    62    61    1
   134    36    38   ar
   135    51    48    1
   136   143   144   ar
   137   143   142    1
   138   139   138    1
   139   139   140    1
   140   139   142    1
   141   141   140    2
   142    46    45    1
   143    37    39   ar
   144    38    39   ar
   145    61    58    1
   146    48    47    1
   147    48    49    1
   148    39    40    1
   149    59    60    2
   150    59    58    1
   151    58    57    1
   152    45    42    1
   153    50    49    2
   154    41    42    1
   155    42    43    1
   156    43    44    2
