@<TRIPOS>MOLECULE
tmp/2gg8A00.pdb
 184 180 0 0 0
SMALL
GASTEIGER

@<TRIPOS>ATOM
      1  N         -5.3650    6.7690   10.0290 N.3    58  CYS58      -0.1235
      2  CA        -6.0410    5.5550   10.4680 C.3    58  CYS58       0.1677
      3  C         -7.5180    5.7990   10.7390 C.2    58  CYS58       0.2270
      4  O         -8.3200    4.8940   10.5450 O.2    58  CYS58      -0.2867
      5  CB        -5.3750    4.9820   11.7210 C.3    58  CYS58       0.0956
      6  SG        -3.7190    4.3560   11.4010 S.3    58  CYS58      -0.0801
      7  N        -10.3340    4.8150    8.2110 N.3    61  TYR61      -0.1227
      8  CA        -9.7490    4.0470    7.1140 C.3    61  TYR61       0.1736
      9  C        -10.2990    2.6250    7.1170 C.2    61  TYR61       0.2595
     10  O        -10.1130    1.8850    8.0800 O.2    61  TYR61      -0.2718
     11  CB        -8.2210    4.0410    7.2530 C.3    61  TYR61       0.0548
     12  CG        -7.5210    3.1980    6.2090 C.ar   61  TYR61      -0.0200
     13  CD1       -7.4000    3.6500    4.8960 C.ar   61  TYR61      -0.0009
     14  CD2       -6.9960    1.9530    6.5300 C.ar   61  TYR61      -0.0009
     15  CE1       -6.7670    2.8870    3.9370 C.ar   61  TYR61       0.0417
     16  CE2       -6.3650    1.1830    5.5790 C.ar   61  TYR61       0.0417
     17  CZ        -6.2520    1.6570    4.2860 C.ar   61  TYR61       0.1957
     18  OH        -5.6330    0.9040    3.3260 O.3    61  TYR61      -0.2866
     19  N        -10.9960    2.2350    6.0430 N.am   62  HIS62      -0.1975
     20  CA       -11.7920    0.9890    6.0700 C.3    62  HIS62       0.1656
     21  C        -12.6950    0.8690    7.3090 C.2    62  HIS62       0.2291
     22  O        -13.0570   -0.2330    7.7400 O.2    62  HIS62      -0.2864
     23  CB       -10.8980   -0.2450    5.8240 C.3    62  HIS62       0.0771
     24  CG       -10.2110   -0.2180    4.4920 C.ar   62  HIS62       0.0820
     25  ND1      -10.3830   -1.1890    3.5270 N.ar   62  HIS62      -0.2267
     26  CD2       -9.3750    0.7000    3.9540 C.ar   62  HIS62       0.1154
     27  CE1       -9.6600   -0.8820    2.4660 C.ar   62  HIS62       0.1986
     28  NE2       -9.0480    0.2650    2.6920 N.ar   62  HIS62      -0.2212
     29  N        -11.9500    2.0330   10.3740 N.3    64  TYR64      -0.1241
     30  CA       -11.2440    1.9170   11.6460 C.3    64  TYR64       0.1605
     31  C        -11.6990    3.0360   12.6010 C.2    64  TYR64       0.2264
     32  O        -11.7250    4.2280   12.2460 O.2    64  TYR64      -0.2867
     33  CB        -9.7040    1.8650   11.4510 C.3    64  TYR64       0.0534
     34  CG        -8.9810    1.6520   12.7810 C.ar   64  TYR64      -0.0201
     35  CD1       -8.9170    0.3950   13.3690 C.ar   64  TYR64      -0.0009
     36  CD2       -8.3710    2.7260   13.4390 C.ar   64  TYR64      -0.0009
     37  CE1       -8.2710    0.2130   14.5930 C.ar   64  TYR64       0.0417
     38  CE2       -7.7290    2.5440   14.7000 C.ar   64  TYR64       0.0417
     39  CZ        -7.6780    1.2860   15.2620 C.ar   64  TYR64       0.1957
     40  OH        -7.0510    1.0570   16.4860 O.3    64  TYR64      -0.2866
     41  N         -3.3600    2.5970   16.5170 N.3    69  CYS69      -0.1235
     42  CA        -3.6110    1.2150   16.9710 C.3    69  CYS69       0.1677
     43  C         -2.7400    0.8940   18.1580 C.2    69  CYS69       0.2270
     44  O         -1.5200    1.1080   18.1150 O.2    69  CYS69      -0.2867
     45  CB        -3.3150    0.1810   15.8830 C.3    69  CYS69       0.0956
     46  SG        -4.3740    0.4100   14.4800 S.3    69  CYS69      -0.0801
     47  N         -3.6990   -3.9510   15.1160 N.3    78  HIS78      -0.1241
     48  CA        -5.0420   -3.3910   14.9290 C.3    78  HIS78       0.1621
     49  C         -5.8180   -3.4970   16.2500 C.2    78  HIS78       0.2264
     50  O         -7.0550   -3.5250   16.2610 O.2    78  HIS78      -0.2867
     51  CB        -5.8450   -4.0430   13.7760 C.3    78  HIS78       0.0745
     52  CG        -5.1790   -4.0140   12.4130 C.ar   78  HIS78       0.0817
     53  ND1       -5.7200   -4.6680   11.3270 N.ar   78  HIS78      -0.2268
     54  CD2       -4.0450   -3.4230   11.9590 C.ar   78  HIS78       0.1154
     55  CE1       -4.9600   -4.4690   10.2620 C.ar   78  HIS78       0.1986
     56  NE2       -3.9240   -3.7320   10.6240 N.ar   78  HIS78      -0.2212
     57  N          1.0470    2.2120   17.0300 N.3    96  ASP96      -0.1225
     58  CA         1.2890    2.3940   15.5950 C.3    96  ASP96       0.1805
     59  C          0.5100    3.6670   15.1840 C.2    96  ASP96       0.2598
     60  O         -0.7140    3.7930   15.3640 O.2    96  ASP96      -0.2718
     61  CB         0.8500    1.1350   14.8110 C.3    96  ASP96       0.1424
     62  CG         1.2690    1.1660   13.3490 C.2    96  ASP96       0.3668
     63  OD1        1.8100    2.2140   12.8950 O.co2  96  ASP96      -0.2456
     64  OD2        1.0950    0.1670   12.5990 O.co2  96  ASP96      -0.2456
     65  N          1.2570    4.6200   14.6350 N.am   97  VAL97      -0.1966
     66  CA         0.8240    5.9720   14.3340 C.3    97  VAL97       0.1727
     67  C          0.9570    6.1540   12.8020 C.2    97  VAL97       0.2616
     68  O          1.9600    5.7720   12.1830 O.2    97  VAL97      -0.2715
     69  CB         1.7640    6.9840   15.0330 C.3    97  VAL97       0.0290
     70  CG1        1.4450    8.4190   14.5940 C.3    97  VAL97       0.0023
     71  CG2        1.7700    6.8100   16.5990 C.3    97  VAL97       0.0023
     72  N         -0.0610    6.7280   12.1680 N.am   98  THR98      -0.1951
     73  CA         0.1380    7.2680   10.8110 C.3    98  THR98       0.1897
     74  C         -0.5120    8.6420   10.7070 C.2    98  THR98       0.2313
     75  O         -1.6820    8.7870   11.0640 O.2    98  THR98      -0.2863
     76  CB        -0.4160    6.3680    9.6930 C.3    98  THR98       0.1794
     77  OG1        0.0650    5.0250    9.8580 O.3    98  THR98      -0.2208
     78  CG2       -0.0090    6.9470    8.2840 C.3    98  THR98       0.0378
     79  N          4.4380    6.9020    8.7110 N.3   107  ASP107     -0.1239
     80  CA         3.8730    5.6600    9.3010 C.3   107  ASP107      0.1674
     81  C          4.9580    4.9460   10.1330 C.2   107  ASP107      0.2266
     82  O          6.0050    4.5560    9.6220 O.2   107  ASP107     -0.2867
     83  CB         3.3380    4.7740    8.1420 C.3   107  ASP107      0.1410
     84  CG         2.5980    3.5300    8.6340 C.2   107  ASP107      0.3668
     85  OD1        2.1140    2.7830    7.7580 O.co2 107  ASP107     -0.2456
     86  OD2        2.4730    3.3020    9.8780 O.co2 107  ASP107     -0.2456
     87  N          0.6840  -12.2830    7.0290 N.3   166  GLU166     -0.1231
     88  CA        -0.5030  -11.6370    6.4480 C.3   166  GLU166      0.1699
     89  C         -0.3170  -10.1530    6.3210 C.2   166  GLU166      0.2592
     90  O         -1.0080   -9.5050    5.5240 O.2   166  GLU166     -0.2718
     91  CB        -1.7490  -11.8240    7.3170 C.3   166  GLU166      0.0402
     92  CG        -2.4570  -13.1560    7.1470 C.3   166  GLU166      0.1161
     93  CD        -1.7510  -14.2410    7.9220 C.2   166  GLU166      0.3649
     94  OE1       -0.6200  -13.9910    8.4280 O.co2 166  GLU166     -0.2457
     95  OE2       -2.3430  -15.3320    8.0170 O.co2 166  GLU166     -0.2457
     96  N          0.5580   -9.5900    7.1470 N.am  167  TYR167     -0.1962
     97  CA         0.7210   -8.1470    7.0450 C.3   167  TYR167      0.1771
     98  C          2.0910   -7.7730    6.5070 C.2   167  TYR167      0.2619
     99  O          3.1320   -8.3820    6.8200 O.2   167  TYR167     -0.2715
    100  CB         0.3540   -7.4090    8.3310 C.3   167  TYR167      0.0574
    101  CG        -1.0600   -7.7530    8.7360 C.ar  167  TYR167     -0.0198
    102  CD1       -2.1350   -7.0440    8.2290 C.ar  167  TYR167     -0.0009
    103  CD2       -1.3220   -8.8230    9.5870 C.ar  167  TYR167     -0.0009
    104  CE1       -3.4280   -7.3620    8.5820 C.ar  167  TYR167      0.0417
    105  CE2       -2.6260   -9.1520    9.9490 C.ar  167  TYR167      0.0417
    106  CZ        -3.6680   -8.4120    9.4330 C.ar  167  TYR167      0.1957
    107  OH        -4.9670   -8.6810    9.7600 O.3   167  TYR167     -0.2866
    108  N          2.1090   -6.7720    5.6550 N.am  168  CYS168     -0.1968
    109  CA         3.3970   -6.4180    5.1050 C.3   168  CYS168      0.1712
    110  C          3.5800   -4.9190    5.0890 C.2   168  CYS168      0.2296
    111  O          2.5990   -4.1640    5.2140 O.2   168  CYS168     -0.2864
    112  CB         3.6190   -7.0490    3.7260 C.3   168  CYS168      0.0983
    113  SG         2.5020   -6.4670    2.4670 S.3   168  CYS168     -0.0798
    114  N          4.7710   -1.4320    3.0870 N.3   170  HIS170     -0.1241
    115  CA         4.1420   -0.9570    1.8500 C.3   170  HIS170      0.1621
    116  C          4.7780    0.3390    1.3800 C.2   170  HIS170      0.2264
    117  O          5.2710    1.1460    2.1760 O.2   170  HIS170     -0.2867
    118  CB         2.6640   -0.6740    2.2010 C.3   170  HIS170      0.0745
    119  CG         2.5290    0.0800    3.4970 C.ar  170  HIS170      0.0817
    120  ND1        2.4320    1.4560    3.5560 N.ar  170  HIS170     -0.2268
    121  CD2        2.5140   -0.3620    4.7850 C.ar  170  HIS170      0.1154
    122  CE1        2.3400    1.8300    4.8260 C.ar  170  HIS170      0.1986
    123  NE2        2.4280    0.7490    5.5840 N.ar  170  HIS170     -0.2212
    124  N         -1.7730    6.0810    1.4940 N.3   176  PHE176     -0.1227
    125  CA        -1.3570    5.4120    2.7340 C.3   176  PHE176      0.1736
    126  C         -0.6010    4.1200    2.3500 C.2   176  PHE176      0.2595
    127  O          0.5530    3.8730    2.8040 O.2   176  PHE176     -0.2718
    128  CB        -2.6460    5.1550    3.5400 C.3   176  PHE176      0.0547
    129  CG        -2.4490    4.7230    4.9580 C.ar  176  PHE176     -0.0202
    130  CD1       -1.2090    4.3430    5.4160 C.ar  176  PHE176     -0.0042
    131  CD2       -3.5350    4.7040    5.8500 C.ar  176  PHE176     -0.0042
    132  CE1       -1.0270    3.9410    6.7390 C.ar  176  PHE176     -0.0003
    133  CE2       -3.3700    4.3160    7.1950 C.ar  176  PHE176     -0.0003
    134  CZ        -2.0990    3.9370    7.6410 C.ar  176  PHE176     -0.0000
    135  N         -1.2170    3.3420    1.4550 N.am  177  HIS177     -0.1975
    136  CA        -0.6720    2.0900    0.9420 C.3   177  HIS177      0.1656
    137  C         -0.5320    2.1100   -0.5730 C.2   177  HIS177      0.2291
    138  O         -1.5580    2.0780   -1.2740 O.2   177  HIS177     -0.2864
    139  CB        -1.5540    0.9260    1.3760 C.3   177  HIS177      0.0771
    140  CG        -1.6060    0.7600    2.8710 C.ar  177  HIS177      0.0820
    141  ND1       -2.5620    1.3460    3.6740 N.ar  177  HIS177     -0.2267
    142  CD2       -0.7830    0.0930    3.7110 C.ar  177  HIS177      0.1154
    143  CE1       -2.3240    1.0430    4.9390 C.ar  177  HIS177      0.1986
    144  NE2       -1.2510    0.2720    4.9840 N.ar  177  HIS177     -0.2212
    145  N          7.8900   -3.2060    8.3820 N.3   203  GLU203     -0.1245
    146  CA         7.1280   -3.3350    9.6060 C.3   203  GLU203      0.1567
    147  C          6.9010   -4.7750   10.0930 C.2   203  GLU203      0.2260
    148  O          5.7680   -5.2120   10.2430 O.2   203  GLU203     -0.2867
    149  CB         5.8270   -2.5270    9.5150 C.3   203  GLU203      0.0388
    150  CG         4.7180   -3.0080    8.5790 C.3   203  GLU203      0.1160
    151  CD         3.5620   -2.0190    8.5890 C.2   203  GLU203      0.3649
    152  OE1        2.8820   -1.8410    9.6360 O.co2 203  GLU203     -0.2457
    153  OE2        3.3570   -1.3740    7.5360 O.co2 203  GLU203     -0.2457
    154  N          6.1130   -8.1320   11.9860 N.3   205  MET205     -0.1245
    155  CA         5.4030   -8.6280   13.1600 C.3   205  MET205      0.1570
    156  C          5.9960   -9.9990   13.4860 C.2   205  MET205      0.2261
    157  O          6.0420  -10.9080   12.6570 O.2   205  MET205     -0.2867
    158  CB         3.9040   -8.7120   12.8830 C.3   205  MET205      0.0387
    159  CG         3.2770   -7.3460   12.6000 C.3   205  MET205      0.0595
    160  SD         1.6590   -7.5640   11.8580 S.3   205  MET205     -0.1393
    161  CE         1.2360   -5.8650   11.3980 C.3   205  MET205      0.0692
    162  N        -11.5820   -6.3690   14.0760 N.3   220  TRP220     -0.1241
    163  CA       -10.3850   -5.5620   13.9260 C.3   220  TRP220      0.1605
    164  C         -9.2020   -6.2430   14.5740 C.2   220  TRP220      0.2264
    165  O         -8.1350   -6.3840   13.9660 O.2   220  TRP220     -0.2867
    166  CB       -10.5870   -4.1600   14.5200 C.3   220  TRP220      0.0550
    167  CG       -11.3210   -3.2590   13.5720 C.ar  220  TRP220      0.0003
    168  CD1      -12.6120   -2.7990   13.6850 C.ar  220  TRP220      0.0946
    169  CD2      -10.8010   -2.7180   12.3490 C.ar  220  TRP220      0.0152
    170  NE1      -12.9270   -2.0170   12.5980 N.ar  220  TRP220     -0.2442
    171  CE2      -11.8330   -1.9490   11.7670 C.ar  220  TRP220      0.0810
    172  CE3       -9.5610   -2.8230   11.6760 C.ar  220  TRP220      0.0012
    173  CZ2      -11.6610   -1.2680   10.5630 C.ar  220  TRP220      0.0191
    174  CZ3       -9.4010   -2.1340   10.4610 C.ar  220  TRP220      0.0001
    175  CH2      -10.4590   -1.3840    9.9190 C.ar  220  TRP220      0.0015
    176  N          8.0920   -0.3560   13.1480 N.3   234  GLU234     -0.1245
    177  CA         7.8830    0.1120   11.7590 C.3   234  GLU234      0.1567
    178  C          8.6070    1.4390   11.5140 C.2   234  GLU234      0.2260
    179  O          8.5470    2.2920   12.3910 O.2   234  GLU234     -0.2867
    180  CB         6.3910    0.2770   11.5210 C.3   234  GLU234      0.0388
    181  CG         6.1530    0.9540   10.1310 C.3   234  GLU234      0.1160
    182  CD         4.6780    0.9970    9.9090 C.2   234  GLU234      0.3649
    183  OE1        4.2870    1.1050    8.7340 O.co2 234  GLU234     -0.2457
    184  OE2        3.9560    0.9250   10.9540 O.co2 234  GLU234     -0.2457
@<TRIPOS>BOND
     1   138   137    2
     2   137   136    1
     3   136   139    1
     4   136   135    1
     5   139   140    1
     6   116   115    1
     7   116   117    2
     8   135   126   am
     9   124   125    1
    10   115   118    1
    11   115   114    1
    12   118   119    1
    13   126   125    1
    14   126   127    2
    15    27    28   ar
    16    27    25   ar
    17   113   112    1
    18    28    26   ar
    19   125   128    1
    20   140   141   ar
    21   140   142   ar
    22    18    17    1
    23   119   120   ar
    24   119   121   ar
    25    25    24   ar
    26   128   129    1
    27   120   122   ar
    28   141   143   ar
    29   142   144   ar
    30   112   109    1
    31    15    17   ar
    32    15    13   ar
    33    26    24   ar
    34    17    16   ar
    35    24    23    1
    36   121   123   ar
    37   122   123   ar
    38    13    12   ar
    39   143   144   ar
    40   129   130   ar
    41   129   131   ar
    42   110   109    1
    43   110   111    2
    44   109   108    1
    45   130   132   ar
    46    90    89    2
    47    16    14   ar
    48   108    98   am
    49    23    20    1
    50   131   133   ar
    51    19    20    1
    52    19     9   am
    53    20    21    1
    54    12    14   ar
    55    12    11    1
    56    89    88    1
    57    89    96   am
    58    88    87    1
    59    88    91    1
    60    98    99    2
    61    98    97    1
    62   132   134   ar
    63    97    96    1
    64    97   100    1
    65     8     9    1
    66     8    11    1
    67     8     7    1
    68     9    10    2
    69    92    91    1
    70    92    93    1
    71   133   134   ar
    72    21    22    2
    73   153   151   ar
    74    85    84   ar
    75    93    95   ar
    76    93    94   ar
    77    83    84    1
    78    83    80    1
    79   102   104   ar
    80   102   101   ar
    81    78    76    1
    82   100   101    1
    83   145   146    1
    84   150   151    1
    85   150   149    1
    86   104   106   ar
    87   151   152   ar
    88    84    86   ar
    89    79    80    1
    90   183   182   ar
    91   101   103   ar
    92    80    81    1
    93   106   107    1
    94   106   105   ar
    95   149   146    1
    96   103   105   ar
    97   146   147    1
    98    82    81    2
    99    76    77    1
   100    76    73    1
   101   182   181    1
   102   182   184   ar
   103   175   174   ar
   104   175   173   ar
   105     1     2    1
   106   147   148    2
   107   181   180    1
   108    55    56   ar
   109    55    53   ar
   110    29    30    1
   111   174   172   ar
   112     2     3    1
   113     2     5    1
   114     4     3    2
   115   173   171   ar
   116    56    54   ar
   117    74    73    1
   118    74    75    2
   119    73    72    1
   120    53    52   ar
   121   161   160    1
   122     6     5    1
   123    33    30    1
   124    33    34    1
   125   178   177    1
   126   178   179    2
   127   180   177    1
   128    30    31    1
   129   172   169   ar
   130   177   176    1
   131   171   169   ar
   132   171   170   ar
   133   160   159    1
   134    54    52   ar
   135   154   155    1
   136    72    67   am
   137    68    67    2
   138    32    31    2
   139   169   167   ar
   140    52    51    1
   141   170   168   ar
   142    64    62   ar
   143   159   158    1
   144   157   156    2
   145    34    35   ar
   146    34    36   ar
   147    67    66    1
   148   158   155    1
   149    63    62   ar
   150   155   156    1
   151    62    61    1
   152    35    37   ar
   153    36    38   ar
   154   167   168   ar
   155   167   166    1
   156    51    48    1
   157   163   162    1
   158   163   166    1
   159   163   164    1
   160   165   164    2
   161    66    65    1
   162    66    69    1
   163    46    45    1
   164    37    39   ar
   165    70    69    1
   166    65    59   am
   167    38    39   ar
   168    61    58    1
   169    48    47    1
   170    48    49    1
   171    69    71    1
   172    59    60    2
   173    59    58    1
   174    39    40    1
   175    58    57    1
   176    45    42    1
   177    49    50    2
   178    41    42    1
   179    42    43    1
   180    44    43    2
