@<TRIPOS>MOLECULE
tmp/2ggbA00.pdb
 177 172 0 0 0
SMALL
GASTEIGER

@<TRIPOS>ATOM
      1  N         16.8970    7.1310   15.4770 N.3    58  CYS58      -0.1235
      2  CA        17.5020    5.9050   15.0020 C.3    58  CYS58       0.1677
      3  C         18.9910    6.0370   14.7450 C.2    58  CYS58       0.2270
      4  O         19.7480    5.0800   14.9080 O.2    58  CYS58      -0.2867
      5  CB        16.9000    5.5240   13.6800 C.3    58  CYS58       0.0956
      6  SG        15.2090    4.9450   13.7890 S.3    58  CYS58      -0.0801
      7  N         21.7340    5.0830   17.2800 N.3    61  TYR61      -0.1227
      8  CA        21.0710    4.2820   18.3150 C.3    61  TYR61       0.1736
      9  C         21.5970    2.8410   18.3150 C.2    61  TYR61       0.2595
     10  O         21.3950    2.1070   17.3610 O.2    61  TYR61      -0.2718
     11  CB        19.5160    4.3850   18.1990 C.3    61  TYR61       0.0548
     12  CG        18.7920    3.4950   19.1930 C.ar   61  TYR61      -0.0200
     13  CD1       18.7340    3.8320   20.5420 C.ar   61  TYR61      -0.0009
     14  CD2       18.1970    2.3150   18.7770 C.ar   61  TYR61      -0.0009
     15  CE1       18.0930    3.0140   21.4260 C.ar   61  TYR61       0.0417
     16  CE2       17.5760    1.4710   19.6570 C.ar   61  TYR61       0.0417
     17  CZ        17.5330    1.8450   20.9750 C.ar   61  TYR61       0.1957
     18  OH        16.9180    1.0080   21.8390 O.3    61  TYR61      -0.2866
     19  N         22.2830    2.4380   19.3870 N.am   62  HIS62      -0.1975
     20  CA        23.1230    1.2500   19.3620 C.3    62  HIS62       0.1656
     21  C         24.0330    1.1090   18.1750 C.2    62  HIS62       0.2291
     22  O         24.2770    0.0020   17.7360 O.2    62  HIS62      -0.2864
     23  CB        22.3220   -0.0500   19.5820 C.3    62  HIS62       0.0771
     24  CG        21.6960   -0.1370   20.9440 C.ar   62  HIS62       0.0820
     25  ND1       22.0710   -1.0720   21.8870 N.ar   62  HIS62      -0.2267
     26  CD2       20.7340    0.6190   21.5240 C.ar   62  HIS62       0.1154
     27  CE1       21.3550   -0.8940   22.9830 C.ar   62  HIS62       0.1986
     28  NE2       20.5400    0.1320   22.7890 N.ar   62  HIS62      -0.2212
     29  N         23.4560    2.2090   15.1620 N.3    64  TYR64      -0.1241
     30  CA        22.6840    2.2300   13.9180 C.3    64  TYR64       0.1605
     31  C         23.1200    3.3130   12.9510 C.2    64  TYR64       0.2264
     32  O         23.0280    4.4720   13.2940 O.2    64  TYR64      -0.2867
     33  CB        21.1940    2.4580   14.2550 C.3    64  TYR64       0.0534
     34  CG        20.4510    2.2650   12.9680 C.ar   64  TYR64      -0.0201
     35  CD1       20.4510    1.0080   12.3750 C.ar   64  TYR64      -0.0009
     36  CD2       19.8020    3.3200   12.3210 C.ar   64  TYR64      -0.0009
     37  CE1       19.8190    0.7740   11.1720 C.ar   64  TYR64       0.0417
     38  CE2       19.1450    3.0800   11.0980 C.ar   64  TYR64       0.0417
     39  CZ        19.1680    1.7900   10.5480 C.ar   64  TYR64       0.1957
     40  OH        18.5880    1.4840    9.3180 O.3    64  TYR64      -0.2866
     41  N         14.6470    2.8550    9.0560 N.3    69  CYS69      -0.1235
     42  CA        14.9680    1.4540    8.6570 C.3    69  CYS69       0.1677
     43  C         14.1430    1.0250    7.4680 C.2    69  CYS69       0.2270
     44  O         12.9350    1.1590    7.4790 O.2    69  CYS69      -0.2867
     45  CB        14.7230    0.4030    9.7710 C.3    69  CYS69       0.0956
     46  SG        15.7450    0.6540   11.2690 S.3    69  CYS69      -0.0801
     47  N         14.9750   -3.7250   10.5470 N.3    78  HIS78      -0.1241
     48  CA        16.3110   -3.1440   10.7410 C.3    78  HIS78       0.1621
     49  C         17.1180   -3.2840    9.4550 C.2    78  HIS78       0.2264
     50  O         18.3550   -3.2910    9.4990 O.2    78  HIS78      -0.2867
     51  CB        17.1120   -3.8370   11.8870 C.3    78  HIS78       0.0745
     52  CG        16.3930   -3.9080   13.2020 C.ar   78  HIS78       0.0817
     53  ND1       16.8090   -4.7190   14.2370 N.ar   78  HIS78      -0.2268
     54  CD2       15.2970   -3.2500   13.6610 C.ar   78  HIS78       0.1154
     55  CE1       16.0000   -4.5730   15.2670 C.ar   78  HIS78       0.1986
     56  NE2       15.0610   -3.7090   14.9330 N.ar   78  HIS78      -0.2212
     57  N         10.3230    2.2710    8.5970 N.3    96  ASP96      -0.1239
     58  CA        10.0850    2.5190   10.0280 C.3    96  ASP96       0.1674
     59  C         10.8010    3.8370   10.3980 C.2    96  ASP96       0.2266
     60  O         12.0190    4.0480   10.2200 O.2    96  ASP96      -0.2867
     61  CB        10.4880    1.2190   10.7850 C.3    96  ASP96       0.1410
     62  CG        10.1440    1.2720   12.2450 C.2    96  ASP96       0.3668
     63  OD1        9.8330    2.3570   12.7150 O.co2  96  ASP96      -0.2456
     64  OD2       10.1350    0.2510   12.9480 O.co2  96  ASP96      -0.2456
     65  N         11.3910    6.9050   13.3300 N.3    98  THR98      -0.1218
     66  CA        11.2170    7.4260   14.6910 C.3    98  THR98       0.1862
     67  C         11.8990    8.7760   14.7570 C.2    98  THR98       0.2287
     68  O         13.0730    8.9120   14.3980 O.2    98  THR98      -0.2866
     69  CB        11.7840    6.5380   15.8030 C.3    98  THR98       0.1770
     70  OG1       11.3600    5.1520   15.6070 O.3    98  THR98      -0.2211
     71  CG2       11.3170    7.1510   17.1660 C.3    98  THR98       0.0375
     72  N          6.8620    7.1770   16.7790 N.3   107  ASP107     -0.1239
     73  CA         7.4740    5.9420   16.2090 C.3   107  ASP107      0.1674
     74  C          6.4020    5.2130   15.4240 C.2   107  ASP107      0.2266
     75  O          5.3360    4.8260   15.9590 O.2   107  ASP107     -0.2867
     76  CB         8.0070    5.0620   17.3690 C.3   107  ASP107      0.1410
     77  CG         8.7310    3.7580   16.9210 C.2   107  ASP107      0.3668
     78  OD1        9.0880    2.9800   17.8430 O.co2 107  ASP107     -0.2456
     79  OD2        8.9950    3.4420   15.7230 O.co2 107  ASP107     -0.2456
     80  N         10.9210  -12.2100   18.4700 N.3   166  GLU166     -0.1231
     81  CA        12.1010  -11.5190   19.0620 C.3   166  GLU166      0.1699
     82  C         11.8900  -10.0380   19.2700 C.2   166  GLU166      0.2592
     83  O         12.6100   -9.4050   20.0640 O.2   166  GLU166     -0.2718
     84  CB        13.3850  -11.6880   18.2350 C.3   166  GLU166      0.0402
     85  CG        14.0080  -13.1320   18.2000 C.3   166  GLU166      0.1161
     86  CD        13.0570  -14.1310   17.5460 C.2   166  GLU166      0.3649
     87  OE1       11.9410  -13.6980   17.1370 O.co2 166  GLU166     -0.2457
     88  OE2       13.4090  -15.3360   17.4350 O.co2 166  GLU166     -0.2457
     89  N         10.9620   -9.4630   18.5200 N.am  167  TYR167     -0.1962
     90  CA        10.8820   -8.0110   18.5390 C.3   167  TYR167      0.1771
     91  C          9.4970   -7.6460   19.0260 C.2   167  TYR167      0.2619
     92  O          8.5390   -8.4050   18.7820 O.2   167  TYR167     -0.2715
     93  CB        11.2640   -7.3950   17.1940 C.3   167  TYR167      0.0574
     94  CG        12.6920   -7.7600   16.8450 C.ar  167  TYR167     -0.0198
     95  CD1       13.7510   -7.1440   17.4720 C.ar  167  TYR167     -0.0009
     96  CD2       12.9730   -8.7450   15.9020 C.ar  167  TYR167     -0.0009
     97  CE1       15.0510   -7.4670   17.1420 C.ar  167  TYR167      0.0417
     98  CE2       14.2820   -9.0790   15.5650 C.ar  167  TYR167      0.0417
     99  CZ        15.3150   -8.4340   16.1900 C.ar  167  TYR167      0.1957
    100  OH        16.6130   -8.7960   15.8890 O.3   167  TYR167     -0.2866
    101  N          9.3940   -6.5530   19.7660 N.am  168  CYS168     -0.1968
    102  CA         8.1000   -6.2420   20.3500 C.3   168  CYS168      0.1712
    103  C          7.8700   -4.7360   20.3490 C.2   168  CYS168      0.2296
    104  O          8.8280   -3.9980   20.1130 O.2   168  CYS168     -0.2864
    105  CB         7.9940   -6.8640   21.7560 C.3   168  CYS168      0.0983
    106  SG         9.2340   -6.2240   22.8360 S.3   168  CYS168     -0.0798
    107  N          6.5990   -1.3290   22.5990 N.3   170  HIS170     -0.1241
    108  CA         7.4230   -0.8220   23.6950 C.3   170  HIS170      0.1621
    109  C          6.7500    0.5100   24.1320 C.2   170  HIS170      0.2264
    110  O          6.2290    1.2960   23.3050 O.2   170  HIS170     -0.2867
    111  CB         8.8790   -0.5440   23.2170 C.3   170  HIS170      0.0745
    112  CG         8.9560    0.3070   21.9670 C.ar  170  HIS170      0.0817
    113  ND1        9.0050    1.6900   21.9940 N.ar  170  HIS170     -0.2268
    114  CD2        8.9910   -0.0380   20.6510 C.ar  170  HIS170      0.1154
    115  CE1        9.0990    2.1580   20.7630 C.ar  170  HIS170      0.1986
    116  NE2        9.0610    1.1290   19.9310 N.ar  170  HIS170     -0.2212
    117  N         13.1810    6.2990   23.9550 N.3   176  PHE176     -0.1227
    118  CA        12.8160    5.5920   22.7480 C.3   176  PHE176      0.1736
    119  C         11.9900    4.3100   23.0640 C.2   176  PHE176      0.2595
    120  O         10.8480    4.1630   22.6080 O.2   176  PHE176     -0.2718
    121  CB        14.1280    5.3870   21.9380 C.3   176  PHE176      0.0547
    122  CG        13.9400    4.9160   20.5070 C.ar  176  PHE176     -0.0202
    123  CD1       12.7380    4.4300   20.0480 C.ar  176  PHE176     -0.0042
    124  CD2       15.0060    4.9540   19.6140 C.ar  176  PHE176     -0.0042
    125  CE1       12.5900    3.9860   18.7220 C.ar  176  PHE176     -0.0003
    126  CE2       14.8520    4.5000   18.2720 C.ar  176  PHE176     -0.0003
    127  CZ        13.6630    4.0300   17.8520 C.ar  176  PHE176     -0.0000
    128  N         12.5740    3.3970   23.8410 N.am  177  HIS177     -0.1975
    129  CA        11.9460    2.2130   24.3370 C.3   177  HIS177      0.1656
    130  C         11.8430    2.3290   25.8770 C.2   177  HIS177      0.2291
    131  O         12.8510    2.2420   26.5760 O.2   177  HIS177     -0.2864
    132  CB        12.7930    1.0180   23.8660 C.3   177  HIS177      0.0771
    133  CG        12.9350    0.9240   22.3700 C.ar  177  HIS177      0.0820
    134  ND1       13.8670    1.6390   21.6430 N.ar  177  HIS177     -0.2267
    135  CD2       12.2290    0.2130   21.4580 C.ar  177  HIS177      0.1154
    136  CE1       13.7310    1.3690   20.3520 C.ar  177  HIS177      0.1986
    137  NE2       12.7380    0.5020   20.2180 N.ar  177  HIS177     -0.2212
    138  N          3.5270   -3.0290   17.0740 N.3   203  GLU203     -0.1245
    139  CA         4.2710   -3.1380   15.8350 C.3   203  GLU203      0.1567
    140  C          4.5290   -4.5730   15.3860 C.2   203  GLU203      0.2260
    141  O          5.6850   -4.9820   15.2110 O.2   203  GLU203     -0.2867
    142  CB         5.5560   -2.3270   15.9830 C.3   203  GLU203      0.0388
    143  CG         6.6520   -2.8400   16.8790 C.3   203  GLU203      0.1160
    144  CD         7.8060   -1.8440   16.9280 C.2   203  GLU203      0.3649
    145  OE1        8.5360   -1.7140   15.9260 O.co2 203  GLU203     -0.2457
    146  OE2        7.9460   -1.1530   17.9550 O.co2 203  GLU203     -0.2457
    147  N          5.3730   -7.9020   13.6880 N.3   205  MET205     -0.1245
    148  CA         6.0000   -8.4630   12.4880 C.3   205  MET205      0.1570
    149  C          5.3980   -9.8180   12.0890 C.2   205  MET205      0.2261
    150  O          5.3400  -10.7300   12.8990 O.2   205  MET205     -0.2867
    151  CB         7.5130   -8.5540   12.6160 C.3   205  MET205      0.0387
    152  CG         8.3050   -7.2420   12.7040 C.3   205  MET205      0.0595
    153  SD         9.7600   -7.5390   13.7550 S.3   205  MET205     -0.1393
    154  CE        10.2570   -5.8550   14.2030 C.3   205  MET205      0.0692
    155  N         22.8740   -6.1200   11.6650 N.3   220  TRP220     -0.1241
    156  CA        21.6440   -5.3160   11.6610 C.3   220  TRP220      0.1605
    157  C         20.4330   -6.0510   11.0720 C.2   220  TRP220      0.2264
    158  O         19.3930   -6.2860   11.7370 O.2   220  TRP220     -0.2867
    159  CB        21.8940   -3.9410   10.9990 C.3   220  TRP220      0.0550
    160  CG        22.6220   -3.0040   11.9710 C.ar  220  TRP220      0.0003
    161  CD1       23.9160   -2.5700   11.8870 C.ar  220  TRP220      0.0946
    162  CD2       22.0840   -2.4350   13.1800 C.ar  220  TRP220      0.0152
    163  NE1       24.2170   -1.7730   12.9770 N.ar  220  TRP220     -0.2442
    164  CE2       23.1120   -1.6630   13.7770 C.ar  220  TRP220      0.0810
    165  CE3       20.8380   -2.5080   13.8140 C.ar  220  TRP220      0.0012
    166  CZ2       22.9330   -0.9640   14.9760 C.ar  220  TRP220      0.0191
    167  CZ3       20.6620   -1.8180   15.0140 C.ar  220  TRP220      0.0001
    168  CH2       21.7080   -1.0550   15.5800 C.ar  220  TRP220      0.0015
    169  N          3.3760   -0.2550   12.3510 N.3   234  GLU234     -0.1245
    170  CA         3.5460    0.2450   13.6980 C.3   234  GLU234      0.1567
    171  C          2.7780    1.5740   13.8750 C.2   234  GLU234      0.2260
    172  O          2.8700    2.4900   13.0330 O.2   234  GLU234     -0.2867
    173  CB         5.0470    0.5090   13.9640 C.3   234  GLU234      0.0388
    174  CG         5.3100    1.1990   15.3260 C.3   234  GLU234      0.1160
    175  CD         6.7760    1.2040   15.6650 C.2   234  GLU234      0.3649
    176  OE1        7.1400    1.3090   16.8650 O.co2 234  GLU234     -0.2457
    177  OE2        7.5630    1.1890   14.6900 O.co2 234  GLU234     -0.2457
@<TRIPOS>BOND
     1    43    44    2
     2    43    42    1
     3    57    58    1
     4    42    41    1
     5    42    45    1
     6    40    39    1
     7    49    50    2
     8    49    48    1
     9    45    46    1
    10    58    59    1
    11    58    61    1
    12    60    59    2
    13    47    48    1
    14    39    38   ar
    15    39    37   ar
    16    48    51    1
    17    61    62    1
    18   159   156    1
    19   159   160    1
    20   157   156    1
    21   157   158    2
    22    38    36   ar
    23    37    35   ar
    24   156   155    1
    25   161   160   ar
    26   161   163   ar
    27    51    52    1
    28   160   162   ar
    29   149   148    1
    30   149   150    2
    31    62    63   ar
    32    62    64   ar
    33    36    34   ar
    34   169   170    1
    35    35    34   ar
    36   148   151    1
    37   148   147    1
    38   151   152    1
    39   152   153    1
    40    31    32    2
    41    31    30    1
    42    34    33    1
    43   163   164   ar
    44   172   171    2
    45   162   164   ar
    46   162   165   ar
    47    52    54   ar
    48    52    53   ar
    49    65    66    1
    50    54    56   ar
    51     5     6    1
    52     5     2    1
    53   170   171    1
    54   170   173    1
    55   153   154    1
    56   164   166   ar
    57   165   167   ar
    58    30    33    1
    59    30    29    1
    60   173   174    1
    61    53    55   ar
    62    68    67    2
    63   177   175   ar
    64    66    67    1
    65    66    69    1
    66     3     4    2
    67     3     2    1
    68    56    55   ar
    69   166   168   ar
    70     2     1    1
    71   167   168   ar
    72   141   140    2
    73   174   175    1
    74   140   139    1
    75    74    75    2
    76    74    73    1
    77    98    96   ar
    78    98    99   ar
    79    70    69    1
    80   175   176   ar
    81    79    77   ar
    82    69    71    1
    83   139   142    1
    84   139   138    1
    85   100    99    1
    86    96    94   ar
    87   145   144   ar
    88   142   143    1
    89    99    97   ar
    90    73    72    1
    91    73    76    1
    92    94    93    1
    93    94    95   ar
    94   143   144    1
    95    77    76    1
    96    77    78   ar
    97   144   146   ar
    98    87    86   ar
    99    97    95   ar
   100    93    90    1
   101     7     8    1
   102    10     9    2
   103    88    86   ar
   104    86    85    1
   105    22    21    2
   106   127   126   ar
   107   127   125   ar
   108    21    20    1
   109    11     8    1
   110    11    12    1
   111    85    84    1
   112    84    81    1
   113   126   124   ar
   114     8     9    1
   115     9    19   am
   116    80    81    1
   117    89    90    1
   118    89    82   am
   119    90    91    1
   120   125   123   ar
   121    14    12   ar
   122    14    16   ar
   123    92    91    2
   124    91   101   am
   125    81    82    1
   126    12    13   ar
   127    82    83    2
   128    20    19    1
   129    20    23    1
   130    23    24    1
   131   124   122   ar
   132    16    17   ar
   133   101   102    1
   134   116   114   ar
   135   116   115   ar
   136   123   122   ar
   137   104   103    2
   138   137   136   ar
   139   137   135   ar
   140   103   102    1
   141   102   105    1
   142   136   134   ar
   143   122   121    1
   144    13    15   ar
   145   114   112   ar
   146   115   113   ar
   147    24    26   ar
   148    24    25   ar
   149    17    15   ar
   150    17    18    1
   151   135   133   ar
   152    26    28   ar
   153   134   133   ar
   154   105   106    1
   155    25    27   ar
   156   121   118    1
   157   112   113   ar
   158   112   111    1
   159   133   132    1
   160   107   108    1
   161   120   119    2
   162   118   119    1
   163   118   117    1
   164    28    27   ar
   165   119   128   am
   166   111   108    1
   167   110   109    2
   168   108   109    1
   169   128   129    1
   170   132   129    1
   171   129   130    1
   172   130   131    2
