@<TRIPOS>MOLECULE
tmp/2ggdA00.pdb
 134 124 0 0 0
SMALL
GASTEIGER

@<TRIPOS>ATOM
      1  N       -130.3880   34.3480  134.6000 N.3    23  LYS23      -0.1231
      2  CA      -130.0500   32.9380  134.3520 C.3    23  LYS23       0.1693
      3  C       -128.6170   32.7420  133.8520 C.2    23  LYS23       0.2592
      4  O       -127.8970   31.8670  134.3550 O.2    23  LYS23      -0.2718
      5  CB      -131.0560   32.3380  133.3550 C.3    23  LYS23       0.0285
      6  CG      -130.8490   30.8420  133.1230 C.3    23  LYS23       0.0035
      7  CD      -132.1170   30.1720  132.5530 C.3    23  LYS23       0.0206
      8  CE      -132.5670   30.7990  131.2230 C.3    23  LYS23       0.1093
      9  NZ      -131.5710   30.7240  130.1140 N.3    23  LYS23      -0.1314
     10  N       -128.1860   33.5430  132.8750 N.am   24  SER24      -0.1952
     11  CA      -126.8330   33.4200  132.3450 C.3    24  SER24       0.1924
     12  C       -125.7700   33.6320  133.4190 C.2    24  SER24       0.2314
     13  O       -124.8230   32.8500  133.5290 O.2    24  SER24      -0.2863
     14  CB      -126.6260   34.4350  131.2090 C.3    24  SER24       0.2116
     15  OG      -127.4090   34.0750  130.0700 O.3    24  SER24      -0.2180
     16  N       -123.1080   30.7470  135.4260 N.3    28  ARG28      -0.1245
     17  CA      -121.6740   30.9670  135.5560 C.3    28  ARG28       0.1563
     18  C       -121.2120   31.1270  137.0030 C.2    28  ARG28       0.2260
     19  O       -120.0570   30.8180  137.3180 O.2    28  ARG28      -0.2867
     20  CB      -121.2490   32.1840  134.7170 C.3    28  ARG28       0.0307
     21  CG      -121.3910   31.9680  133.1950 C.3    28  ARG28       0.0489
     22  CD      -121.4170   33.3230  132.4770 C.3    28  ARG28       0.2205
     23  NE      -121.3910   33.1840  131.0100 N.pl3  28  ARG28      -0.0865
     24  CZ      -122.4320   32.8340  130.2410 C.cat  28  ARG28       0.5346
     25  NH1     -123.6180   32.5790  130.7660 N.pl3  28  ARG28       0.1354
     26  NH2     -122.2820   32.7460  128.9240 N.pl3  28  ARG28       0.1354
     27  N       -127.2940   26.2300  128.1810 N.3    96  THR96      -0.1218
     28  CA      -126.1800   27.0430  128.6880 C.3    96  THR96       0.1862
     29  C       -125.2730   26.2040  129.5880 C.2    96  THR96       0.2287
     30  O       -124.0520   26.1760  129.4080 O.2    96  THR96      -0.2866
     31  CB      -126.6970   28.2610  129.4780 C.3    96  THR96       0.1770
     32  OG1     -127.4480   29.0870  128.5850 O.3    96  THR96      -0.2211
     33  CG2     -125.5350   29.0890  130.0490 C.3    96  THR96       0.0375
     34  N       -123.5630   23.2010  127.3000 N.3    99  ARG99      -0.1245
     35  CA      -122.4980   23.6130  126.3980 C.3    99  ARG99       0.1563
     36  C       -121.2750   24.2050  127.0940 C.2    99  ARG99       0.2260
     37  O       -120.1390   23.8850  126.7280 O.2    99  ARG99      -0.2867
     38  CB      -123.0610   24.5850  125.3740 C.3    99  ARG99       0.0307
     39  CG      -124.1820   23.9210  124.5450 C.3    99  ARG99       0.0489
     40  CD      -124.3150   24.6210  123.2420 C.3    99  ARG99       0.2205
     41  NE      -125.3300   24.0630  122.3450 N.pl3  99  ARG99      -0.0865
     42  CZ      -126.5390   24.5980  122.1550 C.cat  99  ARG99       0.5346
     43  NH1     -126.9090   25.6910  122.8260 N.pl3  99  ARG99       0.1354
     44  NH2     -127.3380   24.1060  121.2170 N.pl3  99  ARG99       0.1354
     45  N       -121.6110   22.8560  117.3790 N.3   127  ARG127     -0.1245
     46  CA      -120.9940   24.1740  117.4670 C.3   127  ARG127      0.1563
     47  C       -119.9370   24.2710  118.5650 C.2   127  ARG127      0.2260
     48  O       -119.0090   25.0840  118.4430 O.2   127  ARG127     -0.2867
     49  CB      -122.0800   25.2280  117.6570 C.3   127  ARG127      0.0307
     50  CG      -122.9890   24.8960  118.7900 C.3   127  ARG127      0.0489
     51  CD      -124.1390   25.8530  118.8050 C.3   127  ARG127      0.2205
     52  NE      -124.8600   25.8830  117.5360 N.pl3 127  ARG127     -0.0865
     53  CZ      -125.6640   26.8860  117.2000 C.cat 127  ARG127      0.5346
     54  NH1     -125.8320   27.8880  118.0460 N.pl3 127  ARG127      0.1354
     55  NH2     -126.2560   26.9190  116.0150 N.pl3 127  ARG127      0.1354
     56  N       -123.4890   33.9200  115.9350 N.3   167  ALA167     -0.1231
     57  CA      -123.4580   34.8160  117.1040 C.3   167  ALA167      0.1694
     58  C       -123.8430   34.1110  118.3940 C.2   167  ALA167      0.2593
     59  O       -124.8880   34.3950  118.9820 O.2   167  ALA167     -0.2718
     60  CB      -124.3790   36.0440  116.8750 C.3   167  ALA167      0.0304
     61  N       -122.9580   33.2250  118.8430 N.am  168  SER168     -0.1938
     62  CA      -123.1790   32.4190  120.0340 C.3   168  SER168      0.2055
     63  C       -122.2490   32.7310  121.2020 C.2   168  SER168      0.2643
     64  O       -121.0200   32.5250  121.1250 O.2   168  SER168     -0.2714
     65  CB      -123.0310   30.9390  119.6740 C.3   168  SER168      0.2130
     66  OG      -123.0990   30.1210  120.8420 O.3   168  SER168     -0.2179
     67  N       -122.8320   33.2230  122.2890 N.am  169  ALA169     -0.1963
     68  CA      -122.0610   33.4990  123.4990 C.3   169  ALA169      0.1728
     69  C       -121.6890   32.1320  124.1080 C.2   169  ALA169      0.2616
     70  O       -120.6730   32.0160  124.7680 O.2   169  ALA169     -0.2715
     71  CB      -122.9010   34.3160  124.4980 C.3   169  ALA169      0.0334
     72  N       -122.5000   31.0950  123.8890 N.am  170  GLN170     -0.1977
     73  CA      -122.1460   29.7780  124.4630 C.3   170  GLN170      0.1601
     74  C       -120.9150   29.1390  123.8220 C.2   170  GLN170      0.2287
     75  O       -120.1210   28.4860  124.5090 O.2   170  GLN170     -0.2864
     76  CB      -123.3250   28.7820  124.3560 C.3   170  GLN170      0.0394
     77  CG      -124.5220   29.1810  125.1600 C.3   170  GLN170      0.0908
     78  CD      -125.6090   28.1140  125.1510 C.2   170  GLN170      0.2608
     79  OE1     -125.3670   26.9760  124.7570 O.2   170  GLN170     -0.2717
     80  NE2     -126.7960   28.4740  125.6150 N.am  170  GLN170     -0.0878
     81  N       -123.5410   38.3320  124.5040 N.3   195  ARG195     -0.1245
     82  CA      -123.4660   38.6040  125.9470 C.3   195  ARG195      0.1563
     83  C       -122.0870   38.2010  126.4450 C.2   195  ARG195      0.2260
     84  O       -121.5480   37.1550  126.0700 O.2   195  ARG195     -0.2867
     85  CB      -124.6120   37.9260  126.7070 C.3   195  ARG195      0.0307
     86  CG      -124.6230   36.4170  126.7460 C.3   195  ARG195      0.0489
     87  CD      -125.9550   35.9510  127.3390 C.3   195  ARG195      0.2205
     88  NE      -127.0670   36.2310  126.4180 N.pl3 195  ARG195     -0.0865
     89  CZ      -128.3550   36.0490  126.7280 C.cat 195  ARG195      0.5346
     90  NH1     -128.6920   35.5860  127.9370 N.pl3 195  ARG195      0.1354
     91  NH2     -129.3050   36.3910  125.8570 N.pl3 195  ARG195      0.1354
     92  N       -131.8590   37.9280  121.4210 N.3   320  ILE320     -0.1231
     93  CA      -132.2710   36.6680  120.8160 C.3   320  ILE320      0.1692
     94  C       -133.3450   35.9040  121.5860 C.2   320  ILE320      0.2592
     95  O       -134.2270   35.3100  120.9680 O.2   320  ILE320     -0.2718
     96  CB      -131.0060   35.7820  120.5190 C.3   320  ILE320      0.0266
     97  CG1     -131.3700   34.6020  119.5900 C.3   320  ILE320      0.0019
     98  CG2     -130.3670   35.3180  121.8240 C.3   320  ILE320      0.0020
     99  CD1     -131.8150   35.0420  118.1970 C.3   320  ILE320      0.0001
    100  N       -133.3080   35.9370  122.9180 N.am  321  ASP321     -0.1974
    101  CA      -134.3110   35.1990  123.6900 C.3   321  ASP321      0.1709
    102  C       -135.6190   35.9770  123.8490 C.2   321  ASP321      0.2293
    103  O       -136.6050   35.4580  124.3850 O.2   321  ASP321     -0.2864
    104  CB      -133.7520   34.8420  125.0630 C.3   321  ASP321      0.1436
    105  CG      -132.5950   33.8440  124.9850 C.2   321  ASP321      0.3671
    106  OD1     -132.4670   33.1480  123.9530 O.co2 321  ASP321     -0.2456
    107  OD2     -131.8470   33.7390  125.9720 O.co2 321  ASP321     -0.2456
    108  N       -131.0440   31.4570  114.3790 N.3   344  GLU344     -0.1245
    109  CA      -130.7540   30.8340  115.6730 C.3   344  GLU344      0.1567
    110  C       -131.9900   30.4420  116.4780 C.2   344  GLU344      0.2260
    111  O       -131.9240   29.5450  117.3220 O.2   344  GLU344     -0.2867
    112  CB      -129.8310   31.7350  116.5090 C.3   344  GLU344      0.0388
    113  CG      -128.3980   31.6600  116.0280 C.3   344  GLU344      0.1160
    114  CD      -127.7250   30.3500  116.4070 C.2   344  GLU344      0.3649
    115  OE1     -127.5930   30.0850  117.6250 O.co2 344  GLU344     -0.2457
    116  OE2     -127.3440   29.5860  115.4950 O.co2 344  GLU344     -0.2457
    117  N       -133.3710   26.5770  119.4450 N.3   348  LYS348     -0.1231
    118  CA      -133.4930   26.7970  120.8890 C.3   348  LYS348      0.1693
    119  C       -134.2800   25.6630  121.5580 C.2   348  LYS348      0.2591
    120  O       -134.4130   24.5730  120.9810 O.2   348  LYS348     -0.2718
    121  CB      -134.1470   28.1660  121.1480 C.3   348  LYS348      0.0285
    122  CG      -133.2850   29.3240  120.6320 C.3   348  LYS348      0.0035
    123  CD      -132.0010   29.4650  121.4410 C.3   348  LYS348      0.0206
    124  CE      -131.1030   30.5770  120.8630 C.3   348  LYS348      0.1093
    125  NZ      -129.8410   30.7440  121.6420 N.3   348  LYS348     -0.1314
    126  N       -134.7720   25.9050  122.7700 N.am  349  GLU349     -0.1979
    127  CA      -135.5450   24.8940  123.5070 C.3   349  GLU349      0.1602
    128  C       -136.6090   24.2800  122.5830 C.2   349  GLU349      0.2287
    129  O       -136.9170   23.0850  122.6670 O.2   349  GLU349     -0.2864
    130  CB      -136.1810   25.5280  124.7440 C.3   349  GLU349      0.0415
    131  CG      -135.1780   25.8570  125.8540 C.3   349  GLU349      0.1163
    132  CD      -134.6480   27.2710  125.7620 C.2   349  GLU349      0.3649
    133  OE1     -134.4400   27.7730  124.6240 O.co2 349  GLU349     -0.2457
    134  OE2     -134.4450   27.8740  126.8370 O.co2 349  GLU349     -0.2457
@<TRIPOS>BOND
     1   108   109    1
     2   116   114   ar
     3   109   110    1
     4   109   112    1
     5    56    57    1
     6    55    53    1
     7   113   114    1
     8   113   112    1
     9   114   115   ar
    10   110   111    2
    11    60    57    1
    12    57    58    1
    13    53    52    2
    14    53    54    1
    15    45    46    1
    16    46    49    1
    17    46    47    1
    18    52    51    1
    19    49    50    1
    20    99    97    1
    21    58    61   am
    22    58    59    2
    23    48    47    2
    24    50    51    1
    25    61    62    1
    26   117   118    1
    27    97    96    1
    28    65    62    1
    29    65    66    1
    30    62    63    1
    31    96    93    1
    32    96    98    1
    33   122   121    1
    34   122   123    1
    35    93    92    1
    36    93    94    1
    37   124   123    1
    38   124   125    1
    39   118   121    1
    40   118   119    1
    41    95    94    2
    42   120   119    2
    43    64    63    2
    44    63    67   am
    45    44    42    1
    46   119   126   am
    47    94   100   am
    48    42    41    2
    49    42    43    1
    50    67    68    1
    51    41    40    1
    52   128   129    2
    53   128   127    1
    54   126   127    1
    55   100   101    1
    56    40    39    1
    57    68    69    1
    58    68    71    1
    59   127   130    1
    60   101   102    1
    61   101   104    1
    62    74    73    1
    63    74    75    2
    64   102   103    2
    65    72    69   am
    66    72    73    1
    67   106   105   ar
    68    69    70    2
    69    76    73    1
    70    76    77    1
    71    81    82    1
    72    39    38    1
    73   133   132   ar
    74   130   131    1
    75    79    78    2
    76   105   104    1
    77   105   107   ar
    78    78    77    1
    79    78    80   am
    80    38    35    1
    81   132   131    1
    82   132   134   ar
    83    91    89    1
    84    82    83    1
    85    82    85    1
    86    84    83    2
    87    35    36    1
    88    35    34    1
    89    88    89    2
    90    88    87    1
    91    85    86    1
    92    89    90    1
    93    37    36    2
    94    86    87    1
    95    27    28    1
    96    32    31    1
    97    28    31    1
    98    28    29    1
    99    26    24    1
   100    30    29    2
   101    31    33    1
   102    15    14    1
   103     9     8    1
   104    24    25    1
   105    24    23    2
   106    23    22    1
   107    14    11    1
   108     8     7    1
   109    11    10    1
   110    11    12    1
   111    22    21    1
   112     7     6    1
   113    10     3   am
   114     6     5    1
   115    21    20    1
   116     5     2    1
   117    12    13    2
   118     3     2    1
   119     3     4    2
   120     2     1    1
   121    20    17    1
   122    16    17    1
   123    17    18    1
   124    18    19    2
