@<TRIPOS>MOLECULE
tmp/2ggdA01.pdb
 140 131 0 0 0
SMALL
GASTEIGER

@<TRIPOS>ATOM
      1  N       -130.3880   34.3480  134.6000 N.3    23  LYS23      -0.1245
      2  CA      -130.0500   32.9380  134.3520 C.3    23  LYS23       0.1561
      3  C       -128.6170   32.7420  133.8520 C.2    23  LYS23       0.2260
      4  O       -127.8970   31.8670  134.3550 O.2    23  LYS23      -0.2867
      5  CB      -131.0560   32.3380  133.3550 C.3    23  LYS23       0.0271
      6  CG      -130.8490   30.8420  133.1230 C.3    23  LYS23       0.0035
      7  CD      -132.1170   30.1720  132.5530 C.3    23  LYS23       0.0206
      8  CE      -132.5670   30.7990  131.2230 C.3    23  LYS23       0.1093
      9  NZ      -131.5710   30.7240  130.1140 N.3    23  LYS23      -0.1314
     10  N       -125.8720   30.6650  136.0890 N.3    27  HIS27      -0.1241
     11  CA      -125.1620   29.4490  135.6360 C.3    27  HIS27       0.1621
     12  C       -123.6580   29.6190  135.8740 C.2    27  HIS27       0.2264
     13  O       -123.0030   28.7360  136.4250 O.2    27  HIS27      -0.2867
     14  CB      -125.3100   29.2130  134.1290 C.3    27  HIS27       0.0745
     15  CG      -126.5940   28.5790  133.7030 C.ar   27  HIS27       0.0817
     16  ND1     -126.9490   27.2890  134.0510 N.ar   27  HIS27      -0.2268
     17  CD2     -127.5570   29.0180  132.8520 C.ar   27  HIS27       0.1154
     18  CE1     -128.0680   26.9640  133.4280 C.ar   27  HIS27       0.1986
     19  NE2     -128.4590   27.9960  132.6970 N.ar   27  HIS27      -0.2212
     20  N       -132.9180   25.0590  135.4470 N.3    50  ASP50      -0.1239
     21  CA      -131.6960   25.0590  134.6340 C.3    50  ASP50       0.1674
     22  C       -130.4570   25.3060  135.4830 C.2    50  ASP50       0.2266
     23  O       -129.4420   24.6210  135.3390 O.2    50  ASP50      -0.2867
     24  CB      -131.7510   26.1520  133.5580 C.3    50  ASP50       0.1410
     25  CG      -132.5580   25.7440  132.3320 C.2    50  ASP50       0.3668
     26  OD1     -133.2350   24.6890  132.3550 O.co2  50  ASP50      -0.2456
     27  OD2     -132.5250   26.4970  131.3300 O.co2  50  ASP50      -0.2456
     28  N       -133.0850   20.7190  130.8270 N.3    93  ASN93      -0.1225
     29  CA      -133.4510   21.5380  129.6770 C.3    93  ASN93       0.1785
     30  C       -132.3660   22.5780  129.3760 C.2    93  ASN93       0.2597
     31  O       -132.4920   23.3330  128.4220 O.2    93  ASN93      -0.2718
     32  CB      -134.7670   22.2870  130.0400 C.3    93  ASN93       0.1169
     33  CG      -135.4840   22.8940  128.8340 C.2    93  ASN93       0.2627
     34  OD1     -135.5480   24.1240  128.6710 O.2    93  ASN93      -0.2716
     35  ND2     -136.0650   22.0400  128.0040 N.am   93  ASN93      -0.0877
     36  N       -131.2900   22.5880  130.1640 N.am   94  ALA94      -0.1966
     37  CA      -130.3160   23.6760  130.0650 C.3    94  ALA94       0.1728
     38  C       -129.1550   23.6140  129.1210 C.2    94  ALA94       0.2617
     39  O       -128.1130   23.0600  129.4580 O.2    94  ALA94      -0.2715
     40  CB      -129.7840   23.9980  131.4770 C.3    94  ALA94       0.0334
     41  N       -129.3220   24.2580  127.9690 N.am   95  GLY95      -0.1940
     42  CA      -128.2600   24.3140  126.9860 C.3    95  GLY95       0.2014
     43  C       -127.0550   25.1080  127.4980 C.2    95  GLY95       0.2639
     44  O       -125.9050   24.7100  127.2820 O.2    95  GLY95      -0.2714
     45  N       -127.2940   26.2300  128.1810 N.am   96  THR96      -0.1950
     46  CA      -126.1800   27.0430  128.6880 C.3    96  THR96       0.1897
     47  C       -125.2730   26.2040  129.5880 C.2    96  THR96       0.2313
     48  O       -124.0520   26.1760  129.4080 O.2    96  THR96      -0.2863
     49  CB      -126.6970   28.2610  129.4780 C.3    96  THR96       0.1794
     50  OG1     -127.4480   29.0870  128.5850 O.3    96  THR96      -0.2208
     51  CG2     -125.5350   29.0890  130.0490 C.3    96  THR96       0.0378
     52  N       -123.5630   23.2010  127.3000 N.3    99  ARG99      -0.1245
     53  CA      -122.4980   23.6130  126.3980 C.3    99  ARG99       0.1563
     54  C       -121.2750   24.2050  127.0940 C.2    99  ARG99       0.2260
     55  O       -120.1390   23.8850  126.7280 O.2    99  ARG99      -0.2867
     56  CB      -123.0610   24.5850  125.3740 C.3    99  ARG99       0.0307
     57  CG      -124.1820   23.9210  124.5450 C.3    99  ARG99       0.0489
     58  CD      -124.3150   24.6210  123.2420 C.3    99  ARG99       0.2205
     59  NE      -125.3300   24.0630  122.3450 N.pl3  99  ARG99      -0.0865
     60  CZ      -126.5390   24.5980  122.1550 C.cat  99  ARG99       0.5346
     61  NH1     -126.9090   25.6910  122.8260 N.pl3  99  ARG99       0.1354
     62  NH2     -127.3380   24.1060  121.2170 N.pl3  99  ARG99       0.1354
     63  N       -131.2150   19.2690  120.3000 N.3   123  ARG123     -0.1245
     64  CA      -130.4670   20.4690  119.9160 C.3   123  ARG123      0.1563
     65  C       -129.0270   20.2190  119.4790 C.2   123  ARG123      0.2260
     66  O       -128.3650   19.2610  119.9180 O.2   123  ARG123     -0.2867
     67  CB      -130.5600   21.4730  121.0630 C.3   123  ARG123      0.0307
     68  CG      -132.0170   21.9080  121.2800 C.3   123  ARG123      0.0489
     69  CD      -132.1910   22.7620  122.5200 C.3   123  ARG123      0.2205
     70  NE      -131.5140   24.0490  122.3780 N.pl3 123  ARG123     -0.0865
     71  CZ      -131.2280   24.8410  123.4070 C.cat 123  ARG123      0.5346
     72  NH1     -131.5710   24.4750  124.6340 N.pl3 123  ARG123      0.1354
     73  NH2     -130.5630   25.9750  123.2180 N.pl3 123  ARG123      0.1354
     74  N       -122.5000   31.0950  123.8890 N.3   170  GLN170     -0.1245
     75  CA      -122.1460   29.7780  124.4630 C.3   170  GLN170      0.1566
     76  C       -120.9150   29.1390  123.8220 C.2   170  GLN170      0.2260
     77  O       -120.1210   28.4860  124.5090 O.2   170  GLN170     -0.2867
     78  CB      -123.3250   28.7820  124.3560 C.3   170  GLN170      0.0367
     79  CG      -124.5220   29.1810  125.1600 C.3   170  GLN170      0.0905
     80  CD      -125.6090   28.1140  125.1510 C.2   170  GLN170      0.2608
     81  OE1     -125.3670   26.9760  124.7570 O.2   170  GLN170     -0.2717
     82  NE2     -126.7960   28.4740  125.6150 N.am  170  GLN170     -0.0878
     83  N       -133.3080   35.9370  122.9180 N.3   321  ASP321     -0.1239
     84  CA      -134.3110   35.1990  123.6900 C.3   321  ASP321      0.1674
     85  C       -135.6190   35.9770  123.8490 C.2   321  ASP321      0.2266
     86  O       -136.6050   35.4580  124.3850 O.2   321  ASP321     -0.2867
     87  CB      -133.7520   34.8420  125.0630 C.3   321  ASP321      0.1410
     88  CG      -132.5950   33.8440  124.9850 C.2   321  ASP321      0.3668
     89  OD1     -132.4670   33.1480  123.9530 O.co2 321  ASP321     -0.2456
     90  OD2     -131.8470   33.7390  125.9720 O.co2 321  ASP321     -0.2456
     91  N       -133.3710   26.5770  119.4450 N.3   348  LYS348     -0.1231
     92  CA      -133.4930   26.7970  120.8890 C.3   348  LYS348      0.1693
     93  C       -134.2800   25.6630  121.5580 C.2   348  LYS348      0.2591
     94  O       -134.4130   24.5730  120.9810 O.2   348  LYS348     -0.2718
     95  CB      -134.1470   28.1660  121.1480 C.3   348  LYS348      0.0285
     96  CG      -133.2850   29.3240  120.6320 C.3   348  LYS348      0.0035
     97  CD      -132.0010   29.4650  121.4410 C.3   348  LYS348      0.0206
     98  CE      -131.1030   30.5770  120.8630 C.3   348  LYS348      0.1093
     99  NZ      -129.8410   30.7440  121.6420 N.3   348  LYS348     -0.1314
    100  N       -134.7720   25.9050  122.7700 N.am  349  GLU349     -0.1979
    101  CA      -135.5450   24.8940  123.5070 C.3   349  GLU349      0.1602
    102  C       -136.6090   24.2800  122.5830 C.2   349  GLU349      0.2287
    103  O       -136.9170   23.0850  122.6670 O.2   349  GLU349     -0.2864
    104  CB      -136.1810   25.5280  124.7440 C.3   349  GLU349      0.0415
    105  CG      -135.1780   25.8570  125.8540 C.3   349  GLU349      0.1163
    106  CD      -134.6480   27.2710  125.7620 C.2   349  GLU349      0.3649
    107  OE1     -134.4400   27.7730  124.6240 O.co2 349  GLU349     -0.2457
    108  OE2     -134.4450   27.8740  126.8370 O.co2 349  GLU349     -0.2457
    109  N       -138.2330   28.1320  117.8640 N.3   352  ARG352     -0.1245
    110  CA      -139.0660   29.2550  118.2820 C.3   352  ARG352      0.1563
    111  C       -139.7390   30.0320  117.1860 C.2   352  ARG352      0.2260
    112  O       -140.8020   30.6350  117.4270 O.2   352  ARG352     -0.2867
    113  CB      -138.2380   30.2130  119.1490 C.3   352  ARG352      0.0307
    114  CG      -138.0230   29.6500  120.5230 C.3   352  ARG352      0.0489
    115  CD      -137.0810   30.5110  121.3810 C.3   352  ARG352      0.2205
    116  NE      -137.1760   30.0500  122.7620 N.pl3 352  ARG352     -0.0865
    117  CZ      -136.4790   30.5570  123.7670 C.cat 352  ARG352      0.5346
    118  NH1     -135.6200   31.5300  123.5250 N.pl3 352  ARG352      0.1354
    119  NH2     -136.6910   30.1290  125.0130 N.pl3 352  ARG352      0.1354
    120  N       -140.1900   27.1220  127.8820 N.3   399  HIS399     -0.1226
    121  CA      -140.6690   28.0740  128.8670 C.3   399  HIS399      0.1752
    122  C       -141.0990   29.4340  128.3070 C.2   399  HIS399      0.2595
    123  O       -142.1070   29.9740  128.7700 O.2   399  HIS399     -0.2718
    124  CB      -139.5990   28.2800  129.9710 C.3   399  HIS399      0.0759
    125  CG      -138.3170   28.8920  129.4890 C.ar  399  HIS399      0.0818
    126  ND1     -137.5650   28.3700  128.4580 N.ar  399  HIS399     -0.2268
    127  CD2     -137.6230   29.9630  129.9530 C.ar  399  HIS399      0.1154
    128  CE1     -136.4620   29.0940  128.3110 C.ar  399  HIS399      0.1986
    129  NE2     -136.4760   30.0600  129.2100 N.ar  399  HIS399     -0.2212
    130  N       -140.3670   29.9960  127.3400 N.am  400  ARG400     -0.1980
    131  CA      -140.7370   31.3150  126.8050 C.3   400  ARG400      0.1597
    132  C       -141.9090   31.3000  125.8630 C.2   400  ARG400      0.2287
    133  O       -142.5450   32.3350  125.6610 O.2   400  ARG400     -0.2864
    134  CB      -139.5490   32.0130  126.1410 C.3   400  ARG400      0.0334
    135  CG      -138.4070   32.2470  127.1200 C.3   400  ARG400      0.0492
    136  CD      -137.4320   33.3580  126.6590 C.3   400  ARG400      0.2205
    137  NE      -136.2230   33.2740  127.4840 N.pl3 400  ARG400     -0.0865
    138  CZ      -136.1000   33.7270  128.7330 C.cat 400  ARG400      0.5346
    139  NH1     -137.0970   34.3800  129.3560 N.pl3 400  ARG400      0.1354
    140  NH2     -135.0070   33.4040  129.4220 N.pl3 400  ARG400      0.1354
@<TRIPOS>BOND
     1   111   112    2
     2   111   110    1
     3   109   110    1
     4   110   113    1
     5   113   114    1
     6    91    92    1
     7    65    64    1
     8    65    66    2
     9    64    63    1
    10    64    67    1
    11   114   115    1
    12    96    95    1
    13    96    97    1
    14    98    97    1
    15    98    99    1
    16    92    95    1
    17    92    93    1
    18    94    93    2
    19    67    68    1
    20    62    60    1
    21    68    69    1
    22   115   116    1
    23    93   100   am
    24    60    59    2
    25    60    61    1
    26    59    58    1
    27    70    69    1
    28    70    71    2
    29   102   103    2
    30   102   101    1
    31   116   117    2
    32   100   101    1
    33    83    84    1
    34    73    71    1
    35    58    57    1
    36    71    72    1
    37   101   104    1
    38   118   117    1
    39    84    85    1
    40    84    87    1
    41   117   119    1
    42    76    75    1
    43    76    77    2
    44    85    86    2
    45    74    75    1
    46    89    88   ar
    47    78    75    1
    48    78    79    1
    49    57    56    1
    50   107   106   ar
    51   104   105    1
    52    81    80    2
    53    88    87    1
    54    88    90   ar
    55    80    79    1
    56    80    82   am
    57    56    53    1
    58   133   132    2
    59   106   105    1
    60   106   108   ar
    61   132   131    1
    62   134   131    1
    63   134   135    1
    64    53    54    1
    65    53    52    1
    66   136   135    1
    67   136   137    1
    68    55    54    2
    69   131   130    1
    70    42    43    1
    71    42    41    1
    72    44    43    2
    73   130   122   am
    74   137   138    2
    75    43    45   am
    76   120   121    1
    77    41    38   am
    78    35    33   am
    79    45    46    1
    80   122   123    2
    81   122   121    1
    82   128   126   ar
    83   128   129   ar
    84    31    30    2
    85   126   125   ar
    86    50    49    1
    87    34    33    2
    88    46    49    1
    89    46    47    1
    90   138   139    1
    91   138   140    1
    92    33    32    1
    93   121   124    1
    94    38    39    2
    95    38    37    1
    96   129   127   ar
    97    30    29    1
    98    30    36   am
    99    48    47    2
   100    49    51    1
   101   125   127   ar
   102   125   124    1
   103    29    32    1
   104    29    28    1
   105    37    36    1
   106    37    40    1
   107     9     8    1
   108     8     7    1
   109    27    25   ar
   110    25    26   ar
   111    25    24    1
   112     7     6    1
   113    19    17   ar
   114    19    18   ar
   115    17    15   ar
   116     6     5    1
   117     5     2    1
   118    18    16   ar
   119    24    21    1
   120    15    16   ar
   121    15    14    1
   122     3     2    1
   123     3     4    2
   124    14    11    1
   125     2     1    1
   126    21    20    1
   127    21    22    1
   128    23    22    2
   129    11    12    1
   130    11    10    1
   131    12    13    2
