@<TRIPOS>MOLECULE
tmp/2gguC00.pdb
 98 92 0 0 0
SMALL
GASTEIGER

@<TRIPOS>ATOM
      1  N         63.0630   25.7390   17.4530 N.3   117  GLU117     -0.1245
      2  CA        62.2300   26.5240   16.5490 C.3   117  GLU117      0.1567
      3  C         61.8390   27.8560   17.1780 C.2   117  GLU117      0.2260
      4  O         61.7960   27.9840   18.4030 O.2   117  GLU117     -0.2867
      5  CB        60.9630   25.7390   16.1930 C.3   117  GLU117      0.0388
      6  CG        61.2130   24.3110   15.7280 C.3   117  GLU117      0.1160
      7  CD        61.9980   24.2300   14.4270 C.2   117  GLU117      0.3649
      8  OE1       62.1570   25.2650   13.7530 O.co2 117  GLU117     -0.2457
      9  OE2       62.4440   23.1200   14.0680 O.co2 117  GLU117     -0.2457
     10  N         63.4060   28.3110   13.3170 N.3   119  ASN119     -0.1240
     11  CA        64.7710   28.3570   12.7880 C.3   119  ASN119      0.1653
     12  C         64.9120   28.8530   11.3530 C.2   119  ASN119      0.2266
     13  O         66.0180   28.8680   10.8050 O.2   119  ASN119     -0.2867
     14  CB        65.4360   26.9790   12.9150 C.3   119  ASN119      0.1155
     15  CG        64.7490   25.9000   12.0840 C.2   119  ASN119      0.2627
     16  OD1       63.7080   26.1280   11.4680 O.2   119  ASN119     -0.2716
     17  ND2       65.3380   24.7070   12.0770 N.am  119  ASN119     -0.0877
     18  N         64.4900   27.5960    8.5040 N.3   121  ASP121     -0.1239
     19  CA        65.2950   26.6450    7.7420 C.3   121  ASP121      0.1674
     20  C         65.2770   26.9690    6.2470 C.2   121  ASP121      0.2266
     21  O         64.2140   27.1560    5.6530 O.2   121  ASP121     -0.2867
     22  CB        64.7770   25.2180    7.9750 C.3   121  ASP121      0.1410
     23  CG        65.8990   24.1870    8.0560 C.2   121  ASP121      0.3668
     24  OD1       66.6730   24.0560    7.0870 O.co2 121  ASP121     -0.2456
     25  OD2       66.0060   23.5010    9.0990 O.co2 121  ASP121     -0.2456
     26  N         61.2030   30.1240    5.9110 N.3   125  GLU125     -0.1245
     27  CA        60.0880   29.5620    6.6810 C.3   125  GLU125      0.1567
     28  C         59.4180   30.6960    7.4460 C.2   125  GLU125      0.2260
     29  O         59.8840   31.0900    8.5170 O.2   125  GLU125     -0.2867
     30  CB        60.5720   28.4870    7.6600 C.3   125  GLU125      0.0388
     31  CG        61.2900   27.3260    6.9860 C.3   125  GLU125      0.1160
     32  CD        61.3930   26.0910    7.8680 C.2   125  GLU125      0.3649
     33  OE1       61.7980   26.2150    9.0460 O.co2 125  GLU125     -0.2457
     34  OE2       61.0810   24.9850    7.3710 O.co2 125  GLU125     -0.2457
     35  N         52.1890   20.5560   15.1060 N.3   131  PHE131     -0.1227
     36  CA        52.2640   19.1060   14.9590 C.3   131  PHE131      0.1736
     37  C         51.2010   18.4200   15.8050 C.2   131  PHE131      0.2596
     38  O         50.5680   19.0410   16.6600 O.2   131  PHE131     -0.2718
     39  CB        53.6330   18.5790   15.4130 C.3   131  PHE131      0.0547
     40  CG        54.8120   19.1960   14.6990 C.ar  131  PHE131     -0.0202
     41  CD1       54.8350   19.3040   13.3110 C.ar  131  PHE131     -0.0042
     42  CD2       55.9280   19.6110   15.4200 C.ar  131  PHE131     -0.0042
     43  CE1       55.9580   19.8120   12.6540 C.ar  131  PHE131     -0.0003
     44  CE2       57.0520   20.1190   14.7730 C.ar  131  PHE131     -0.0003
     45  CZ        57.0660   20.2180   13.3860 C.ar  131  PHE131     -0.0000
     46  N         51.0260   17.1240   15.5730 N.am  132  THR132     -0.1939
     47  CA        50.0650   16.3490   16.3360 C.3   132  THR132      0.2028
     48  C         50.5050   16.3390   17.8010 C.2   132  THR132      0.2642
     49  O         49.7000   16.0940   18.6980 O.2   132  THR132     -0.2714
     50  CB        49.9860   14.9000   15.8150 C.3   132  THR132      0.1808
     51  OG1       51.2830   14.2950   15.8810 O.3   132  THR132     -0.2208
     52  CG2       49.5030   14.8820   14.3670 C.3   132  THR132      0.0379
     53  N         51.7840   16.6190   18.0440 N.am  133  ASN133     -0.1971
     54  CA        52.2930   16.6360   19.4100 C.3   133  ASN133      0.1688
     55  C         52.0260   17.9820   20.0810 C.2   133  ASN133      0.2292
     56  O         52.3900   18.1920   21.2340 O.2   133  ASN133     -0.2864
     57  CB        53.7900   16.2980   19.4270 C.3   133  ASN133      0.1181
     58  CG        54.6760   17.5080   19.2140 C.2   133  ASN133      0.2629
     59  OD1       54.3260   18.4340   18.4830 O.2   133  ASN133     -0.2716
     60  ND2       55.8470   17.4950   19.8460 N.am  133  ASN133     -0.0877
     61  N         56.2050   24.7730   14.6830 N.3   137  ASN137     -0.1225
     62  CA        57.4100   24.7950   13.8670 C.3   137  ASN137      0.1785
     63  C         57.1990   25.7650   12.7140 C.2   137  ASN137      0.2597
     64  O         56.1440   25.7590   12.0840 O.2   137  ASN137     -0.2718
     65  CB        57.7250   23.4050   13.3100 C.3   137  ASN137      0.1169
     66  CG        58.7920   23.4450   12.2230 C.2   137  ASN137      0.2627
     67  OD1       59.8520   24.0410   12.4060 O.2   137  ASN137     -0.2716
     68  ND2       58.5110   22.8140   11.0850 N.am  137  ASN137     -0.0877
     69  N         58.1760   26.6250   12.4420 N.am  138  ASP138     -0.1960
     70  CA        58.0000   27.5250   11.3210 C.3   138  ASP138      0.1840
     71  C         58.2610   26.6930   10.0620 C.2   138  ASP138      0.2621
     72  O         59.2110   25.9180   10.0050 O.2   138  ASP138     -0.2715
     73  CB        58.9010   28.7720   11.4440 C.3   138  ASP138      0.1450
     74  CG        60.3900   28.4600   11.5390 C.2   138  ASP138      0.3671
     75  OD1       60.7880   27.3460   11.9300 O.co2 138  ASP138     -0.2456
     76  OD2       61.1690   29.3820   11.2340 O.co2 138  ASP138     -0.2456
     77  N         57.3770   26.8220    9.0740 N.am  139  ARG139     -0.1977
     78  CA        57.4700   26.0400    7.8400 C.3   139  ARG139      0.1597
     79  C         57.1290   26.9260    6.6480 C.2   139  ARG139      0.2287
     80  O         56.4510   27.9400    6.8010 O.2   139  ARG139     -0.2864
     81  CB        56.4860   24.8580    7.9210 C.3   139  ARG139      0.0334
     82  CG        56.6970   23.7280    6.9080 C.3   139  ARG139      0.0492
     83  CD        58.0460   23.0530    7.1040 C.3   139  ARG139      0.2205
     84  NE        58.2450   21.9020    6.2220 N.pl3 139  ARG139     -0.0865
     85  CZ        57.9010   20.6530    6.5210 C.cat 139  ARG139      0.5346
     86  NH1       57.3320   20.3720    7.6900 N.pl3 139  ARG139      0.1354
     87  NH2       58.1330   19.6760    5.6520 N.pl3 139  ARG139      0.1354
     88  N         48.8920   22.2360    4.4280 N.3   145  ARG145     -0.1245
     89  CA        48.6020   21.7070    5.7530 C.3   145  ARG145      0.1563
     90  C         47.1020   21.7540    6.0340 C.2   145  ARG145      0.2260
     91  O         46.3500   22.4210    5.3270 O.2   145  ARG145     -0.2867
     92  CB        49.3670   22.5070    6.8200 C.3   145  ARG145      0.0307
     93  CG        50.9030   22.3860    6.7230 C.3   145  ARG145      0.0489
     94  CD        51.3980   21.0200    7.2030 C.3   145  ARG145      0.2205
     95  NE        52.8500   20.8610    7.1120 N.pl3 145  ARG145     -0.0865
     96  CZ        53.5090   20.4880    6.0180 C.cat 145  ARG145      0.5346
     97  NH1       52.8550   20.2260    4.8950 N.pl3 145  ARG145      0.1354
     98  NH2       54.8320   20.3680    6.0490 N.pl3 145  ARG145      0.1354
@<TRIPOS>BOND
     1    88    89    1
     2    97    96    1
     3    91    90    2
     4    87    85    1
     5    21    20    2
     6    89    90    1
     7    89    92    1
     8    26    27    1
     9    96    98    1
    10    96    95    2
    11    84    85    2
    12    84    83    1
    13    20    19    1
    14    85    86    1
    15    79    80    2
    16    79    78    1
    17    27    28    1
    18    27    30    1
    19    93    92    1
    20    93    94    1
    21    82    83    1
    22    82    81    1
    23    31    30    1
    24    31    32    1
    25    24    23   ar
    26    95    94    1
    27    34    32   ar
    28    28    29    2
    29    19    22    1
    30    19    18    1
    31    78    81    1
    32    78    77    1
    33    32    33   ar
    34    22    23    1
    35    23    25   ar
    36    77    71   am
    37    72    71    2
    38    71    70    1
    39    13    12    2
    40    68    66   am
    41    76    74   ar
    42    70    73    1
    43    70    69    1
    44    12    11    1
    45    73    74    1
    46    16    15    2
    47    74    75   ar
    48    17    15   am
    49    64    63    2
    50    15    14    1
    51    66    67    2
    52    66    65    1
    53    69    63   am
    54    43    41   ar
    55    43    45   ar
    56    63    62    1
    57    11    14    1
    58    11    10    1
    59    65    62    1
    60    41    40   ar
    61    45    44   ar
    62     8     7   ar
    63    62    61    1
    64     9     7   ar
    65    52    50    1
    66     7     6    1
    67    40    39    1
    68    40    42   ar
    69    44    42   ar
    70    36    35    1
    71    36    39    1
    72    36    37    1
    73    46    37   am
    74    46    47    1
    75     6     5    1
    76    37    38    2
    77    50    51    1
    78    50    47    1
    79     5     2    1
    80    47    48    1
    81     2     3    1
    82     2     1    1
    83     3     4    2
    84    48    53   am
    85    48    49    2
    86    53    54    1
    87    59    58    2
    88    58    57    1
    89    58    60   am
    90    54    57    1
    91    54    55    1
    92    55    56    2
