@<TRIPOS>MOLECULE
tmp/2ggxC00.pdb
 98 92 0 0 0
SMALL
GASTEIGER

@<TRIPOS>ATOM
      1  N         42.9430   14.1810   35.0620 N.3   117  GLU117     -0.1245
      2  CA        42.0620   13.4520   34.1520 C.3   117  GLU117      0.1567
      3  C         42.6650   12.0920   33.8050 C.2   117  GLU117      0.2260
      4  O         43.8850   11.9190   33.8470 O.2   117  GLU117     -0.2867
      5  CB        41.8550   14.2570   32.8620 C.3   117  GLU117      0.0388
      6  CG        41.4140   15.7040   33.0710 C.3   117  GLU117      0.1160
      7  CD        40.0930   15.8210   33.8160 C.2   117  GLU117      0.3649
      8  OE1       39.3500   14.8190   33.8910 O.co2 117  GLU117     -0.2457
      9  OE2       39.7860   16.9240   34.3160 O.co2 117  GLU117     -0.2457
     10  N         38.7110   11.7920   35.1240 N.3   119  ASN119     -0.1240
     11  CA        38.1250   11.7600   36.4620 C.3   119  ASN119      0.1653
     12  C         36.6580   11.3430   36.5180 C.2   119  ASN119      0.2266
     13  O         36.0160   11.4770   37.5570 O.2   119  ASN119     -0.2867
     14  CB        38.3190   13.1210   37.1690 C.3   119  ASN119      0.1155
     15  CG        37.5530   14.2710   36.5060 C.2   119  ASN119      0.2627
     16  OD1       37.5810   15.4090   36.9990 O.2   119  ASN119     -0.2716
     17  ND2       36.8710   13.9880   35.4010 N.am  119  ASN119     -0.0877
     18  N         33.9300   12.5820   35.9020 N.3   121  ASP121     -0.1239
     19  CA        33.1400   13.5630   36.6340 C.3   121  ASP121      0.1674
     20  C         31.6440   13.2490   36.6410 C.2   121  ASP121      0.2266
     21  O         31.0680   12.8730   35.6190 O.2   121  ASP121     -0.2867
     22  CB        33.3820   14.9610   36.0610 C.3   121  ASP121      0.1410
     23  CG        32.9840   16.0580   37.0270 C.2   121  ASP121      0.3668
     24  OD1       33.5060   16.0690   38.1620 O.co2 121  ASP121     -0.2456
     25  OD2       32.1520   16.9110   36.6550 O.co2 121  ASP121     -0.2456
     26  N         31.4800   10.2250   32.5820 N.3   125  GLU125     -0.1245
     27  CA        32.2860   10.7430   31.4830 C.3   125  GLU125      0.1567
     28  C         33.0440    9.5580   30.9200 C.2   125  GLU125      0.2260
     29  O         34.0070    9.0790   31.5290 O.2   125  GLU125     -0.2867
     30  CB        33.2730   11.8140   31.9600 C.3   125  GLU125      0.0388
     31  CG        32.6170   12.9940   32.6440 C.3   125  GLU125      0.1160
     32  CD        33.5510   14.1790   32.8020 C.2   125  GLU125      0.3649
     33  OE1       34.7370   13.9860   33.1460 O.co2 125  GLU125     -0.2457
     34  OE2       33.0890   15.3170   32.5870 O.co2 125  GLU125     -0.2457
     35  N         41.4510   19.5690   24.2620 N.3   131  PHE131     -0.1227
     36  CA        41.3070   21.0260   24.3540 C.3   131  PHE131      0.1736
     37  C         42.2020   21.7100   23.3310 C.2   131  PHE131      0.2596
     38  O         43.0140   21.0640   22.6730 O.2   131  PHE131     -0.2718
     39  CB        41.7210   21.5410   25.7410 C.3   131  PHE131      0.0547
     40  CG        40.8900   21.0100   26.8790 C.ar  131  PHE131     -0.0202
     41  CD1       39.5000   21.0470   26.8290 C.ar  131  PHE131     -0.0042
     42  CD2       41.5070   20.5390   28.0380 C.ar  131  PHE131     -0.0042
     43  CE1       38.7340   20.6280   27.9210 C.ar  131  PHE131     -0.0003
     44  CE2       40.7550   20.1190   29.1320 C.ar  131  PHE131     -0.0003
     45  CZ        39.3660   20.1640   29.0750 C.ar  131  PHE131     -0.0000
     46  N         42.0700   23.0300   23.2220 N.am  132  THR132     -0.1939
     47  CA        42.8970   23.7880   22.2960 C.3   132  THR132      0.2028
     48  C         44.3570   23.7470   22.7410 C.2   132  THR132      0.2642
     49  O         45.2600   23.9980   21.9450 O.2   132  THR132     -0.2714
     50  CB        42.4370   25.2570   22.1980 C.3   132  THR132      0.1808
     51  OG1       42.4450   25.8500   23.5000 O.3   132  THR132     -0.2208
     52  CG2       41.0360   25.3340   21.6260 C.3   132  THR132      0.0379
     53  N         44.5980   23.4300   24.0130 N.am  133  ASN133     -0.1971
     54  CA        45.9760   23.3530   24.4860 C.3   133  ASN133      0.1688
     55  C         46.5630   21.9750   24.1980 C.2   133  ASN133      0.2292
     56  O         47.7290   21.7100   24.4900 O.2   133  ASN133     -0.2864
     57  CB        46.0740   23.6830   25.9840 C.3   133  ASN133      0.1181
     58  CG        45.3940   22.6560   26.8690 C.2   133  ASN133      0.2629
     59  OD1       44.8750   21.6430   26.3970 O.2   133  ASN133     -0.2716
     60  ND2       45.3990   22.9180   28.1740 N.am  133  ASN133     -0.0877
     61  N         40.7240   15.4090   28.1990 N.3   137  ASN137     -0.1225
     62  CA        39.8270   15.3970   29.3500 C.3   137  ASN137      0.1785
     63  C         38.6690   14.4590   29.0400 C.2   137  ASN137      0.2597
     64  O         38.0860   14.5410   27.9570 O.2   137  ASN137     -0.2718
     65  CB        39.2700   16.8010   29.6160 C.3   137  ASN137      0.1169
     66  CG        38.1160   16.7880   30.6010 C.2   137  ASN137      0.2627
     67  OD1       38.2270   16.2260   31.6920 O.2   137  ASN137     -0.2716
     68  ND2       37.0000   17.4110   30.2240 N.am  137  ASN137     -0.0877
     69  N         38.3290   13.5510   29.9540 N.am  138  ASP138     -0.1960
     70  CA        37.1940   12.6950   29.6620 C.3   138  ASP138      0.1840
     71  C         35.9650   13.5860   29.8240 C.2   138  ASP138      0.2621
     72  O         35.9350   14.4690   30.6850 O.2   138  ASP138     -0.2715
     73  CB        37.1610   11.4460   30.5550 C.3   138  ASP138      0.1450
     74  CG        37.1670   11.7560   32.0470 C.2   138  ASP138      0.3671
     75  OD1       37.6310   12.8390   32.4650 O.co2 138  ASP138     -0.2456
     76  OD2       36.7210   10.8710   32.8020 O.co2 138  ASP138     -0.2456
     77  N         34.9750   13.3890   28.9620 N.am  139  ARG139     -0.1977
     78  CA        33.7730   14.2220   28.9730 C.3   139  ARG139      0.1597
     79  C         32.5600   13.3730   28.6180 C.2   139  ARG139      0.2287
     80  O         32.6980   12.3260   27.9830 O.2   139  ARG139     -0.2864
     81  CB        33.9430   15.3490   27.9390 C.3   139  ARG139      0.0334
     82  CG        33.0260   16.5610   28.1040 C.3   139  ARG139      0.0492
     83  CD        33.4490   17.4240   29.2870 C.3   139  ARG139      0.2205
     84  NE        32.5950   18.6010   29.4560 N.pl3 139  ARG139     -0.0865
     85  CZ        33.0160   19.8540   29.3040 C.cat 139  ARG139      0.5346
     86  NH1       34.2780   20.0960   28.9780 N.pl3 139  ARG139      0.1354
     87  NH2       32.1790   20.8680   29.4910 N.pl3 139  ARG139      0.1354
     88  N         30.9290   18.1020   20.4470 N.3   145  ARG145     -0.1245
     89  CA        32.2910   18.5790   20.2480 C.3   145  ARG145      0.1563
     90  C         32.6780   18.5320   18.7690 C.2   145  ARG145      0.2260
     91  O         31.9800   17.9180   17.9670 O.2   145  ARG145     -0.2867
     92  CB        33.2550   17.7320   21.0860 C.3   145  ARG145      0.0307
     93  CG        33.0690   17.9120   22.6030 C.3   145  ARG145      0.0489
     94  CD        33.5240   19.3020   23.0420 C.3   145  ARG145      0.2205
     95  NE        33.4010   19.5460   24.4840 N.pl3 145  ARG145     -0.0865
     96  CZ        32.2930   19.9630   25.0950 C.cat 145  ARG145      0.5346
     97  NH1       31.1870   20.1850   24.4020 N.pl3 145  ARG145      0.1354
     98  NH2       32.2980   20.1860   26.4050 N.pl3 145  ARG145      0.1354
@<TRIPOS>BOND
     1    91    90    2
     2    90    89    1
     3    89    88    1
     4    89    92    1
     5    92    93    1
     6    52    50    1
     7    49    48    2
     8    50    47    1
     9    50    51    1
    10    47    48    1
    11    47    46    1
    12    93    94    1
    13    38    37    2
    14    48    53   am
    15    94    95    1
    16    46    37   am
    17    37    36    1
    18    53    54    1
    19    55    54    1
    20    55    56    2
    21    35    36    1
    22    36    39    1
    23    97    96    1
    24    95    96    2
    25    54    57    1
    26    96    98    1
    27    39    40    1
    28    57    58    1
    29    59    58    2
    30    41    40   ar
    31    41    43   ar
    32    58    60   am
    33    40    42   ar
    34    43    45   ar
    35    81    82    1
    36    81    78    1
    37    64    63    2
    38    80    79    2
    39    42    44   ar
    40    82    83    1
    41    61    62    1
    42    79    78    1
    43    77    78    1
    44    77    71   am
    45    86    85    1
    46    63    62    1
    47    63    69   am
    48    45    44   ar
    49    83    84    1
    50    85    84    2
    51    85    87    1
    52    62    65    1
    53    65    66    1
    54    70    71    1
    55    70    69    1
    56    70    73    1
    57    71    72    2
    58    68    66   am
    59    73    74    1
    60    66    67    2
    61    28    27    1
    62    28    29    2
    63    27    30    1
    64    27    26    1
    65    30    31    1
    66    74    75   ar
    67    74    76   ar
    68    34    32   ar
    69    31    32    1
    70    32    33   ar
    71     5     6    1
    72     5     2    1
    73     6     7    1
    74     3     4    2
    75     3     2    1
    76     7     8   ar
    77     7     9   ar
    78     2     1    1
    79    10    11    1
    80    17    15   am
    81    21    20    2
    82    18    19    1
    83    22    19    1
    84    22    23    1
    85    11    12    1
    86    11    14    1
    87    15    16    2
    88    15    14    1
    89    12    13    2
    90    19    20    1
    91    25    23   ar
    92    23    24   ar
