@<TRIPOS>MOLECULE
tmp/2gh4A00.pdb
 200 197 0 0 0
SMALL
GASTEIGER

@<TRIPOS>ATOM
      1  N         24.8580   43.4540   -0.6840 N.3    28  ARG28      -0.1245
      2  CA        23.9190   43.0230   -1.7140 C.3    28  ARG28       0.1563
      3  C         22.5090   43.2140   -1.1740 C.2    28  ARG28       0.2260
      4  O         22.2660   42.9720    0.0020 O.2    28  ARG28      -0.2867
      5  CB        24.0950   41.5370   -2.0500 C.3    28  ARG28       0.0307
      6  CG        25.2240   41.1760   -3.0050 C.3    28  ARG28       0.0489
      7  CD        25.2080   39.6620   -3.2320 C.3    28  ARG28       0.2205
      8  NE        23.9250   39.2100   -3.7790 N.pl3  28  ARG28      -0.0865
      9  CZ        23.4850   37.9500   -3.7640 C.cat  28  ARG28       0.5346
     10  NH1       22.3030   37.6590   -4.2920 N.pl3  28  ARG28       0.1354
     11  NH2       24.2130   36.9800   -3.2160 N.pl3  28  ARG28       0.1354
     12  N         19.2360   41.7310   -0.9000 N.3    30  HIS30      -0.1226
     13  CA        18.7620   40.3580   -1.0590 C.3    30  HIS30       0.1752
     14  C         17.7380   39.9930    0.0200 C.2    30  HIS30       0.2596
     15  O         17.6810   40.6360    1.0580 O.2    30  HIS30      -0.2718
     16  CB        19.9910   39.4440   -1.0050 C.3    30  HIS30       0.0759
     17  CG        19.7420   38.0430   -1.4590 C.ar   30  HIS30       0.0818
     18  ND1       19.0390   37.7420   -2.6050 N.ar   30  HIS30      -0.2268
     19  CD2       20.1530   36.8590   -0.9450 C.ar   30  HIS30       0.1154
     20  CE1       19.0280   36.4310   -2.7780 C.ar   30  HIS30       0.1986
     21  NE2       19.6970   35.8730   -1.7850 N.ar   30  HIS30      -0.2212
     22  N         16.9380   38.9560   -0.2170 N.am   31  TYR31      -0.1962
     23  CA        15.9040   38.5870    0.7420 C.3    31  TYR31       0.1771
     24  C         16.4250   37.9990    2.0550 C.2    31  TYR31       0.2619
     25  O         15.6850   37.9360    3.0310 O.2    31  TYR31      -0.2715
     26  CB        14.8860   37.6320    0.0960 C.3    31  TYR31       0.0574
     27  CG        15.3180   36.1810    0.0750 C.ar   31  TYR31      -0.0198
     28  CD1       16.0730   35.6690   -0.9770 C.ar   31  TYR31      -0.0009
     29  CD2       14.9800   35.3270    1.1220 C.ar   31  TYR31      -0.0009
     30  CE1       16.4860   34.3280   -0.9860 C.ar   31  TYR31       0.0417
     31  CE2       15.3820   33.9920    1.1300 C.ar   31  TYR31       0.0417
     32  CZ        16.1350   33.4990    0.0720 C.ar   31  TYR31       0.1957
     33  OH        16.5280   32.1740    0.0780 O.3    31  TYR31      -0.2866
     34  N         17.6870   37.5630    2.0830 N.am   32  HIS32      -0.1973
     35  CA        18.2790   37.0250    3.3140 C.3    32  HIS32       0.1656
     36  C         18.2000   38.1340    4.3630 C.2    32  HIS32       0.2291
     37  O         17.6670   37.9390    5.4560 O.2    32  HIS32      -0.2864
     38  CB        19.7580   36.6530    3.1020 C.3    32  HIS32       0.0771
     39  CG        19.9750   35.3820    2.3400 C.ar   32  HIS32       0.0820
     40  ND1       19.0890   34.9120    1.3940 N.ar   32  HIS32      -0.2267
     41  CD2       21.0180   34.5160    2.3370 C.ar   32  HIS32       0.1154
     42  CE1       19.5760   33.8140    0.8410 C.ar   32  HIS32       0.1986
     43  NE2       20.7470   33.5540    1.3950 N.ar   32  HIS32      -0.2212
     44  N         19.1320   42.1290   -8.2570 N.3    73  ARG73      -0.1245
     45  CA        18.9850   41.0760   -9.2670 C.3    73  ARG73       0.1563
     46  C         17.6500   41.2940   -9.9730 C.2    73  ARG73       0.2260
     47  O         16.5990   40.8900   -9.4760 O.2    73  ARG73      -0.2867
     48  CB        19.0130   39.7050   -8.5930 C.3    73  ARG73       0.0307
     49  CG        20.1340   39.5720   -7.5810 C.3    73  ARG73       0.0489
     50  CD        21.4540   39.1450   -8.2070 C.3    73  ARG73       0.2205
     51  NE        21.5370   37.6970   -8.4180 N.pl3  73  ARG73      -0.0865
     52  CZ        21.2370   36.7810   -7.4960 C.cat  73  ARG73       0.5346
     53  NH1       21.3480   35.4840   -7.7730 N.pl3  73  ARG73       0.1354
     54  NH2       20.8110   37.1580   -6.2960 N.pl3  73  ARG73       0.1354
     55  N         12.9280   37.1310   -5.8590 N.3    78  ASP78      -0.1239
     56  CA        13.7420   37.2040   -4.6400 C.3    78  ASP78       0.1674
     57  C         14.2460   38.6060   -4.3150 C.2    78  ASP78       0.2266
     58  O         14.4500   38.9430   -3.1510 O.2    78  ASP78      -0.2867
     59  CB        14.9670   36.2780   -4.7480 C.3    78  ASP78       0.1410
     60  CG        14.6260   34.8060   -4.5640 C.2    78  ASP78       0.3668
     61  OD1       13.4270   34.4710   -4.4330 O.co2  78  ASP78      -0.2456
     62  OD2       15.5790   33.9800   -4.5510 O.co2  78  ASP78      -0.2456
     63  N          9.9960   31.9970  -11.5020 N.3   122  HIS122     -0.1226
     64  CA        10.6720   32.3200  -10.2560 C.3   122  HIS122      0.1752
     65  C         11.8730   33.2270  -10.5470 C.2   122  HIS122      0.2595
     66  O         12.1450   34.1730   -9.8030 O.2   122  HIS122     -0.2718
     67  CB        11.1110   31.0380   -9.5500 C.3   122  HIS122      0.0759
     68  CG        11.6580   31.2710   -8.1810 C.ar  122  HIS122      0.0818
     69  ND1       10.9380   31.9080   -7.1910 N.ar  122  HIS122     -0.2268
     70  CD2       12.8550   30.9540   -7.6350 C.ar  122  HIS122      0.1154
     71  CE1       11.6690   31.9710   -6.0950 C.ar  122  HIS122      0.1986
     72  NE2       12.8360   31.3990   -6.3380 N.ar  122  HIS122     -0.2212
     73  N         12.5680   32.9380  -11.6470 N.am  123  LYS123     -0.1980
     74  CA        13.7340   33.7030  -12.1140 C.3   123  LYS123      0.1596
     75  C         13.8760   33.4360  -13.6110 C.2   123  LYS123      0.2287
     76  O         13.2910   32.4770  -14.1230 O.2   123  LYS123     -0.2864
     77  CB        15.0300   33.2270  -11.4510 C.3   123  LYS123      0.0298
     78  CG        15.1350   33.3930   -9.9550 C.3   123  LYS123      0.0038
     79  CD        16.5510   33.0290   -9.4940 C.3   123  LYS123      0.0206
     80  CE        16.6930   33.1420   -7.9890 C.3   123  LYS123      0.1093
     81  NZ        18.1090   32.9700   -7.5350 N.3   123  LYS123     -0.1314
     82  N         15.0100   30.0570  -14.3960 N.3   126  TYR126     -0.1241
     83  CA        14.0760   28.9740  -14.0920 C.3   126  TYR126      0.1605
     84  C         12.8190   29.1860  -14.9230 C.2   126  TYR126      0.2264
     85  O         11.7350   29.3820  -14.3820 O.2   126  TYR126     -0.2867
     86  CB        13.7060   28.9790  -12.6030 C.3   126  TYR126      0.0534
     87  CG        14.8590   28.6730  -11.6740 C.ar  126  TYR126     -0.0201
     88  CD1       15.6100   27.5060  -11.8280 C.ar  126  TYR126     -0.0009
     89  CD2       15.2060   29.5520  -10.6440 C.ar  126  TYR126     -0.0009
     90  CE1       16.6800   27.2200  -10.9860 C.ar  126  TYR126      0.0417
     91  CE2       16.2760   29.2760   -9.7890 C.ar  126  TYR126      0.0417
     92  CZ        17.0100   28.1060   -9.9710 C.ar  126  TYR126      0.1957
     93  OH        18.0760   27.8260   -9.1460 O.3   126  TYR126     -0.2866
     94  N          7.7490   28.6260   -7.9270 N.3   131  TRP131     -0.1241
     95  CA         8.1680   28.0590   -6.6430 C.3   131  TRP131      0.1605
     96  C          7.3290   28.7200   -5.5390 C.2   131  TRP131      0.2264
     97  O          7.1070   29.9350   -5.5780 O.2   131  TRP131     -0.2867
     98  CB         9.6490   28.3640   -6.3720 C.3   131  TRP131      0.0550
     99  CG        10.6320   27.7560   -7.3240 C.ar  131  TRP131      0.0003
    100  CD1       10.3780   27.2540   -8.5680 C.ar  131  TRP131      0.0946
    101  CD2       12.0450   27.6220   -7.1160 C.ar  131  TRP131      0.0152
    102  NE1       11.5480   26.8150   -9.1490 N.ar  131  TRP131     -0.2442
    103  CE2       12.5860   27.0300   -8.2800 C.ar  131  TRP131      0.0810
    104  CE3       12.9060   27.9510   -6.0590 C.ar  131  TRP131      0.0012
    105  CZ2       13.9570   26.7550   -8.4200 C.ar  131  TRP131      0.0191
    106  CZ3       14.2680   27.6800   -6.1960 C.ar  131  TRP131      0.0001
    107  CH2       14.7790   27.0850   -7.3710 C.ar  131  TRP131      0.0015
    108  N          8.0310   29.6390   -2.5960 N.3   133  ASN133     -0.1240
    109  CA         8.7900   30.7300   -1.9810 C.3   133  ASN133      0.1653
    110  C          8.4520   32.0720   -2.6220 C.2   133  ASN133      0.2266
    111  O          8.4130   33.1080   -1.9450 O.2   133  ASN133     -0.2867
    112  CB        10.3030   30.4850   -2.1340 C.3   133  ASN133      0.1155
    113  CG        10.7170   29.0680   -1.7490 C.2   133  ASN133      0.2627
    114  OD1       10.1790   28.0930   -2.2650 O.2   133  ASN133     -0.2716
    115  ND2       11.6790   28.9550   -0.8430 N.am  133  ASN133     -0.0877
    116  N          8.1310   36.2580   -1.5810 N.3   137  MET137     -0.1245
    117  CA         9.0700   37.2010   -2.1650 C.3   137  MET137      0.1570
    118  C          8.3660   38.3480   -2.8910 C.2   137  MET137      0.2261
    119  O          8.7480   39.5010   -2.7260 O.2   137  MET137     -0.2867
    120  CB        10.0260   36.4990   -3.1440 C.3   137  MET137      0.0387
    121  CG        10.8910   35.3940   -2.5350 C.3   137  MET137      0.0595
    122  SD        11.6690   35.8390   -0.9690 S.3   137  MET137     -0.1393
    123  CE        11.7320   34.2390   -0.1490 C.3   137  MET137      0.0692
    124  N          8.6760   20.3000    1.0940 N.3   201  TRP201     -0.1241
    125  CA         9.7860   20.8850    1.8400 C.3   201  TRP201      0.1605
    126  C          9.2470   21.9840    2.7680 C.2   201  TRP201      0.2264
    127  O          8.6990   22.9880    2.3140 O.2   201  TRP201     -0.2867
    128  CB        10.8240   21.4310    0.8470 C.3   201  TRP201      0.0550
    129  CG        11.9490   22.1640    1.4860 C.ar  201  TRP201      0.0003
    130  CD1       12.7010   21.7490    2.5440 C.ar  201  TRP201      0.0946
    131  CD2       12.4250   23.4660    1.1360 C.ar  201  TRP201      0.0152
    132  NE1       13.6130   22.7180    2.8840 N.ar  201  TRP201     -0.2442
    133  CE2       13.4660   23.7840    2.0340 C.ar  201  TRP201      0.0810
    134  CE3       12.0700   24.3990    0.1490 C.ar  201  TRP201      0.0012
    135  CZ2       14.1600   24.9980    1.9810 C.ar  201  TRP201      0.0191
    136  CZ3       12.7610   25.6080    0.0940 C.ar  201  TRP201      0.0001
    137  CH2       13.7950   25.8950    1.0070 C.ar  201  TRP201      0.0015
    138  N         10.1460   24.7700    4.7480 N.3   203  ARG203     -0.1245
    139  CA        10.2190   26.2150    4.5630 C.3   203  ARG203      0.1563
    140  C          9.4200   26.7560    3.3880 C.2   203  ARG203      0.2260
    141  O          8.7950   27.8060    3.5100 O.2   203  ARG203     -0.2867
    142  CB        11.6740   26.7080    4.4600 C.3   203  ARG203      0.0307
    143  CG        11.7560   28.2370    4.3710 C.3   203  ARG203      0.0489
    144  CD        13.1160   28.7870    4.7920 C.3   203  ARG203      0.2205
    145  NE        14.1730   28.4440    3.8450 N.pl3 203  ARG203     -0.0865
    146  CZ        15.3900   28.0430    4.2020 C.cat 203  ARG203      0.5346
    147  NH1       15.7040   27.9260    5.4840 N.pl3 203  ARG203      0.1354
    148  NH2       16.2990   27.7660    3.2750 N.pl3 203  ARG203      0.1354
    149  N          6.7940   29.6960    3.8030 N.3   207  TRP207     -0.1241
    150  CA         6.7670   31.0100    3.1460 C.3   207  TRP207      0.1605
    151  C          5.3310   31.2990    2.7000 C.2   207  TRP207      0.2264
    152  O          4.8290   32.4180    2.8200 O.2   207  TRP207     -0.2867
    153  CB         7.6590   31.0190    1.9010 C.3   207  TRP207      0.0550
    154  CG         9.1580   31.0570    2.1390 C.ar  207  TRP207      0.0003
    155  CD1       10.0990   30.2710    1.5240 C.ar  207  TRP207      0.0946
    156  CD2        9.8880   31.9840    2.9560 C.ar  207  TRP207      0.0152
    157  NE1       11.3630   30.6570    1.9030 N.ar  207  TRP207     -0.2442
    158  CE2       11.2640   31.7040    2.7800 C.ar  207  TRP207      0.0810
    159  CE3        9.5170   33.0250    3.8140 C.ar  207  TRP207      0.0012
    160  CZ2       12.2680   32.4290    3.4330 C.ar  207  TRP207      0.0191
    161  CZ3       10.5150   33.7470    4.4640 C.ar  207  TRP207      0.0001
    162  CH2       11.8740   33.4430    4.2680 C.ar  207  TRP207      0.0015
    163  N         20.0350   28.3390    2.0050 N.3   322  GLY322     -0.1210
    164  CA        19.3030   28.5920    0.7700 C.3   322  GLY322      0.1956
    165  C         19.1790   27.3000   -0.0160 C.2   322  GLY322      0.2613
    166  O         20.1710   26.6010   -0.2250 O.2   322  GLY322     -0.2717
    167  N         17.9710   26.9880   -0.4740 N.am  323  THR323     -0.1938
    168  CA        17.7310   25.7360   -1.1750 C.3   323  THR323      0.2028
    169  C         16.8510   25.8550   -2.4150 C.2   323  THR323      0.2642
    170  O         15.9090   26.6460   -2.4470 O.2   323  THR323     -0.2714
    171  CB        17.1090   24.7320   -0.1860 C.3   323  THR323      0.1808
    172  OG1       18.0510   24.4830    0.8620 O.3   323  THR323     -0.2208
    173  CG2       16.7350   23.4280   -0.8700 C.3   323  THR323      0.0379
    174  N         17.1700   25.0500   -3.4280 N.am  324  SER324     -0.1949
    175  CA        16.4490   25.0380   -4.6960 C.3   324  SER324      0.1924
    176  C         15.4590   23.8830   -4.7500 C.2   324  SER324      0.2314
    177  O         15.3540   23.1040   -3.8040 O.2   324  SER324     -0.2863
    178  CB        17.4370   24.9040   -5.8600 C.3   324  SER324      0.2116
    179  OG        18.3870   25.9540   -5.8420 O.3   324  SER324     -0.2180
    180  N         20.7280   19.0400    2.6930 N.3   334  ARG334     -0.1245
    181  CA        21.0490   20.4590    2.7930 C.3   334  ARG334      0.1563
    182  C         21.8170   20.8030    4.0620 C.2   334  ARG334      0.2260
    183  O         21.5530   20.2670    5.1400 O.2   334  ARG334     -0.2867
    184  CB        19.7800   21.3210    2.7180 C.3   334  ARG334      0.0307
    185  CG        18.9680   21.1480    1.4400 C.3   334  ARG334      0.0489
    186  CD        19.8300   21.3400    0.1880 C.3   334  ARG334      0.2205
    187  NE        20.2680   22.7190   -0.0070 N.pl3 334  ARG334     -0.0865
    188  CZ        21.3110   23.0640   -0.7590 C.cat 334  ARG334      0.5346
    189  NH1       22.0210   22.1220   -1.3730 N.pl3 334  ARG334      0.1354
    190  NH2       21.6370   24.3460   -0.9140 N.pl3 334  ARG334      0.1354
    191  N         17.8710   33.1210    7.1750 N.3   342  HIS342     -0.1241
    192  CA        16.5470   32.5770    6.8600 C.3   342  HIS342      0.1621
    193  C         15.8390   32.2890    8.1810 C.2   342  HIS342      0.2264
    194  O         14.6740   32.6470    8.3820 O.2   342  HIS342     -0.2867
    195  CB        16.6430   31.2470    6.1100 C.3   342  HIS342      0.0745
    196  CG        17.0260   31.3690    4.6700 C.ar  342  HIS342      0.0817
    197  ND1       18.3290   31.5420    4.2560 N.ar  342  HIS342     -0.2268
    198  CD2       16.2800   31.2850    3.5420 C.ar  342  HIS342      0.1154
    199  CE1       18.3690   31.5550    2.9350 C.ar  342  HIS342      0.1986
    200  NE2       17.1390   31.4000    2.4780 N.ar  342  HIS342     -0.2212
@<TRIPOS>BOND
     1    84    85    2
     2    84    83    1
     3    82    83    1
     4    76    75    2
     5    83    86    1
     6    75    74    1
     7    86    87    1
     8    74    73    1
     9    74    77    1
    10    88    87   ar
    11    88    90   ar
    12    87    89   ar
    13    73    65   am
    14    63    64    1
    15    77    78    1
    16    90    92   ar
    17    89    91   ar
    18    65    64    1
    19    65    66    2
    20    64    67    1
    21    46    47    2
    22    46    45    1
    23    92    91   ar
    24    92    93    1
    25    78    79    1
    26    67    68    1
    27    79    80    1
    28    45    48    1
    29    45    44    1
    30   102   100   ar
    31   102   103   ar
    32    48    49    1
    33   100    99   ar
    34   105   103   ar
    35   105   107   ar
    36    51    50    1
    37    51    52    2
    38   103   101   ar
    39    50    49    1
    40    68    70   ar
    41    68    69   ar
    42    80    81    1
    43    94    95    1
    44    53    52    1
    45    70    72   ar
    46    52    54    1
    47   107   106   ar
    48    99   101   ar
    49    99    98    1
    50    69    71   ar
    51   101   104   ar
    52    95    98    1
    53    95    96    1
    54    72    71   ar
    55   106   104   ar
    56   178   179    1
    57   178   175    1
    58    55    56    1
    59    97    96    2
    60   176   175    1
    61   176   177    2
    62    59    56    1
    63    59    60    1
    64   175   174    1
    65    56    57    1
    66    60    62   ar
    67    60    61   ar
    68    57    58    2
    69    10     9    1
    70     8     9    2
    71     8     7    1
    72     9    11    1
    73   174   169   am
    74     7     6    1
    75   120   121    1
    76   120   117    1
    77     6     5    1
    78   118   119    2
    79   118   117    1
    80    20    18   ar
    81    20    21   ar
    82   110   109    1
    83   110   111    2
    84    18    17   ar
    85   108   109    1
    86   121   122    1
    87   170   169    2
    88   169   168    1
    89   114   113    2
    90   117   116    1
    91   112   109    1
    92   112   113    1
    93     5     2    1
    94    21    19   ar
    95   113   115   am
    96     2     3    1
    97     2     1    1
    98    17    16    1
    99    17    19   ar
   100   189   188    1
   101   168   167    1
   102   168   171    1
   103     3     4    2
   104    13    16    1
   105    13    12    1
   106    13    14    1
   107    30    28   ar
   108    30    32   ar
   109    28    27   ar
   110   122   123    1
   111   190   188    1
   112   173   171    1
   113   188   187    2
   114   167   165   am
   115   166   165    2
   116    22    14   am
   117    22    23    1
   118   171   172    1
   119   165   164    1
   120   187   186    1
   121    14    15    2
   122    32    33    1
   123    32    31   ar
   124    27    26    1
   125    27    29   ar
   126   136   134   ar
   127   136   137   ar
   128    26    23    1
   129   134   131   ar
   130   186   185    1
   131    23    24    1
   132   164   163    1
   133    42    40   ar
   134    42    43   ar
   135   128   129    1
   136   128   125    1
   137   137   135   ar
   138   124   125    1
   139    29    31   ar
   140   131   129   ar
   141   131   133   ar
   142    40    39   ar
   143    43    41   ar
   144   185   184    1
   145   129   130   ar
   146   155   157   ar
   147   155   154   ar
   148   125   126    1
   149   153   154    1
   150   153   150    1
   151   157   158   ar
   152   135   133   ar
   153   133   132   ar
   154    24    34   am
   155    24    25    2
   156    34    35    1
   157   154   156   ar
   158   127   126    2
   159    41    39   ar
   160    39    38    1
   161   200   199   ar
   162   200   198   ar
   163   130   132   ar
   164   180   181    1
   165   151   152    2
   166   151   150    1
   167   184   181    1
   168   158   156   ar
   169   158   160   ar
   170   181   182    1
   171   199   197   ar
   172   156   159   ar
   173    38    35    1
   174   150   149    1
   175   148   146    1
   176    35    36    1
   177   140   141    2
   178   140   139    1
   179   160   162   ar
   180   198   196   ar
   181   159   161   ar
   182   145   146    2
   183   145   144    1
   184   182   183    2
   185   146   147    1
   186   197   196   ar
   187   162   161   ar
   188    36    37    2
   189   143   142    1
   190   143   144    1
   191   142   139    1
   192   139   138    1
   193   196   195    1
   194   195   192    1
   195   192   191    1
   196   192   193    1
   197   193   194    2
