@<TRIPOS>MOLECULE
tmp/2gh5A00.pdb
 140 129 0 0 0
SMALL
GASTEIGER

@<TRIPOS>ATOM
      1  N         86.3890   20.1990   47.9620 N.3    12  GLY12      -0.1210
      2  CA        86.9720   19.7290   49.2040 C.3    12  GLY12       0.1956
      3  C         86.6010   20.6620   50.3360 C.2    12  GLY12       0.2612
      4  O         85.6160   21.4000   50.2490 O.2    12  GLY12      -0.2717
      5  N         87.3950   20.6450   51.4010 N.am   13  SER13      -0.1952
      6  CA        87.1360   21.4930   52.5560 C.3    13  SER13       0.1924
      7  C         86.9780   22.9760   52.2350 C.2    13  SER13       0.2314
      8  O         85.9920   23.5990   52.6320 O.2    13  SER13      -0.2863
      9  CB        88.2470   21.3160   53.5930 C.3    13  SER13       0.2116
     10  OG        88.3000   19.9730   54.0460 O.3    13  SER13      -0.2180
     11  N         83.8920   23.6680   49.2840 N.3    16  LEU16      -0.1231
     12  CA        82.5430   23.4800   49.8030 C.3    16  LEU16       0.1693
     13  C         82.1860   24.5110   50.8660 C.2    16  LEU16       0.2591
     14  O         81.0580   25.0110   50.9050 O.2    16  LEU16      -0.2718
     15  CB        82.3990   22.0750   50.3860 C.3    16  LEU16       0.0284
     16  CG        82.5470   20.9460   49.3650 C.3    16  LEU16       0.0019
     17  CD1       82.5010   19.6090   50.0800 C.3    16  LEU16       0.0001
     18  CD2       81.4380   21.0510   48.3260 C.3    16  LEU16       0.0001
     19  N         83.1410   24.8290   51.7330 N.am   17  ALA17      -0.1980
     20  CA        82.8810   25.8040   52.7830 C.3    17  ALA17       0.1597
     21  C         82.5820   27.1780   52.1860 C.2    17  ALA17       0.2287
     22  O         81.6590   27.8690   52.6250 O.2    17  ALA17      -0.2864
     23  CB        84.0760   25.8940   53.7260 C.3    17  ALA17       0.0319
     24  N         79.0940   27.1300   50.0760 N.3    20  ARG20      -0.1245
     25  CA        77.9090   27.1270   50.9240 C.3    20  ARG20       0.1563
     26  C         77.6510   28.4570   51.6170 C.2    20  ARG20       0.2260
     27  O         76.4970   28.8560   51.7830 O.2    20  ARG20      -0.2867
     28  CB        78.0060   26.0170   51.9710 C.3    20  ARG20       0.0307
     29  CG        77.9050   24.6240   51.3820 C.3    20  ARG20       0.0489
     30  CD        77.9100   23.5810   52.4730 C.3    20  ARG20       0.2205
     31  NE        76.7220   23.6480   53.3120 N.pl3  20  ARG20      -0.0865
     32  CZ        76.6160   23.0370   54.4870 C.cat  20  ARG20       0.5346
     33  NH1       77.6300   22.3200   54.9590 N.pl3  20  ARG20       0.1354
     34  NH2       75.4990   23.1390   55.1930 N.pl3  20  ARG20       0.1354
     35  N         84.0110   16.1360   49.0940 N.3    38  GLY38      -0.1225
     36  CA        84.5340   15.9700   50.4360 C.3    38  GLY38       0.1811
     37  C         86.0430   16.1150   50.4020 C.2    38  GLY38       0.2280
     38  O         86.6680   16.4990   51.3880 O.2    38  GLY38      -0.2866
     39  N         89.9700   15.5360   53.2210 N.3    41  CYS41      -0.1221
     40  CA        89.4920   15.4000   54.5980 C.3    41  CYS41       0.1808
     41  C         88.7220   14.1140   54.8900 C.2    41  CYS41       0.2601
     42  O         89.1160   13.3180   55.7450 O.2    41  CYS41      -0.2717
     43  CB        88.6080   16.5980   54.9590 C.3    41  CYS41       0.0970
     44  SG        87.7770   16.4890   56.5800 S.3    41  CYS41      -0.0800
     45  N         87.6140   13.9130   54.1870 N.am   42  VAL42      -0.1979
     46  CA        86.7900   12.7300   54.4160 C.3    42  VAL42       0.1595
     47  C         87.2320   11.4450   53.7450 C.2    42  VAL42       0.2287
     48  O         87.0220   10.3560   54.2770 O.2    42  VAL42      -0.2864
     49  CB        85.3460   12.9710   53.9720 C.3    42  VAL42       0.0276
     50  CG1       84.7040   13.9510   54.8800 C.3    42  VAL42       0.0022
     51  CG2       85.3180   13.4740   52.5480 C.3    42  VAL42       0.0022
     52  N         89.4570   12.3410   58.6170 N.3    47  VAL47      -0.1245
     53  CA        88.5020   11.3660   59.1230 C.3    47  VAL47       0.1561
     54  C         88.9720    9.9190   59.1920 C.2    47  VAL47       0.2260
     55  O         89.0100    9.3370   60.2820 O.2    47  VAL47      -0.2867
     56  CB        87.1750   11.4700   58.3410 C.3    47  VAL47       0.0252
     57  CG1       86.1540   10.4950   58.9000 C.3    47  VAL47       0.0019
     58  CG2       86.6490   12.8940   58.4440 C.3    47  VAL47       0.0019
     59  N         81.6970    4.1710   57.0370 N.3    89  TYR89      -0.1241
     60  CA        81.5350    5.4580   57.7000 C.3    89  TYR89       0.1605
     61  C         81.7630    6.5980   56.7100 C.2    89  TYR89       0.2264
     62  O         81.0040    7.5700   56.6910 O.2    89  TYR89      -0.2867
     63  CB        82.5170    5.5460   58.8790 C.3    89  TYR89       0.0534
     64  CG        82.5400    6.8680   59.6150 C.ar   89  TYR89      -0.0201
     65  CD1       81.3610    7.5490   59.9220 C.ar   89  TYR89      -0.0009
     66  CD2       83.7460    7.4170   60.0470 C.ar   89  TYR89      -0.0009
     67  CE1       81.3860    8.7490   60.6460 C.ar   89  TYR89       0.0417
     68  CE2       83.7790    8.6070   60.7690 C.ar   89  TYR89       0.0417
     69  CZ        82.6000    9.2660   61.0650 C.ar   89  TYR89       0.1957
     70  OH        82.6330   10.4360   61.7900 O.3    89  TYR89      -0.2866
     71  N         79.2010    9.6220   55.3680 N.3    93  LEU93      -0.1231
     72  CA        79.5320   11.0390   55.3870 C.3    93  LEU93       0.1693
     73  C         79.3390   11.6540   54.0040 C.2    93  LEU93       0.2592
     74  O         78.7500   12.7290   53.8680 O.2    93  LEU93      -0.2718
     75  CB        80.9800   11.2400   55.8490 C.3    93  LEU93       0.0284
     76  CG        81.3790   10.5760   57.1690 C.3    93  LEU93       0.0019
     77  CD1       82.8080   10.9770   57.5140 C.3    93  LEU93       0.0001
     78  CD2       80.4290   10.9830   58.2840 C.3    93  LEU93       0.0001
     79  N         79.8330   10.9680   52.9790 N.am   94  ASN94      -0.1974
     80  CA        79.7180   11.4500   51.6100 C.3    94  ASN94       0.1688
     81  C         78.2660   11.6150   51.1840 C.2    94  ASN94       0.2292
     82  O         77.9350   12.5400   50.4460 O.2    94  ASN94      -0.2864
     83  CB        80.4310   10.4950   50.6530 C.3    94  ASN94       0.1181
     84  CG        81.9370   10.5320   50.8140 C.2    94  ASN94       0.2629
     85  OD1       82.6590    9.7580   50.1890 O.2    94  ASN94      -0.2716
     86  ND2       82.4190   11.4440   51.6540 N.am   94  ASN94      -0.0877
     87  N         75.3730   11.8270   53.4170 N.3    96  ILE96      -0.1231
     88  CA        74.7420   12.8240   54.2760 C.3    96  ILE96       0.1692
     89  C         75.1390   14.2360   53.8790 C.2    96  ILE96       0.2592
     90  O         74.3640   15.1810   54.0560 O.2    96  ILE96      -0.2718
     91  CB        75.1150   12.6150   55.7640 C.3    96  ILE96       0.0266
     92  CG1       74.4260   13.6760   56.6260 C.3    96  ILE96       0.0019
     93  CG2       76.6180   12.7090   55.9450 C.3    96  ILE96       0.0020
     94  CD1       74.7270   13.5650   58.1090 C.3    96  ILE96       0.0001
     95  N         76.3420   14.3760   53.3330 N.am   97  TYR97      -0.1976
     96  CA        76.8280   15.6840   52.9300 C.3    97  TYR97       0.1639
     97  C         76.2960   16.1420   51.5780 C.2    97  TYR97       0.2290
     98  O         75.8150   17.2670   51.4550 O.2    97  TYR97      -0.2864
     99  CB        78.3550   15.7090   52.8970 C.3    97  TYR97       0.0560
    100  CG        78.8860   17.1040   52.6820 C.ar   97  TYR97      -0.0198
    101  CD1       78.9320   18.0250   53.7320 C.ar   97  TYR97      -0.0009
    102  CD2       79.2580   17.5350   51.4130 C.ar   97  TYR97      -0.0009
    103  CE1       79.3330   19.3420   53.5160 C.ar   97  TYR97       0.0417
    104  CE2       79.6550   18.8440   51.1870 C.ar   97  TYR97       0.0417
    105  CZ        79.6900   19.7430   52.2380 C.ar   97  TYR97       0.1957
    106  OH        80.0730   21.0420   51.9990 O.3    97  TYR97      -0.2866
    107  N         73.5650   18.1790   51.7020 N.3   100  ASN100     -0.1240
    108  CA        73.7530   19.5720   52.0890 C.3   100  ASN100      0.1653
    109  C         73.9680   20.4820   50.8910 C.2   100  ASN100      0.2266
    110  O         73.4600   21.6020   50.8590 O.2   100  ASN100     -0.2867
    111  CB        74.9330   19.7040   53.0520 C.3   100  ASN100      0.1155
    112  CG        74.7040   18.9640   54.3510 C.2   100  ASN100      0.2627
    113  OD1       73.6420   19.0780   54.9630 O.2   100  ASN100     -0.2716
    114  ND2       75.7030   18.2080   54.7850 N.am  100  ASN100     -0.0877
    115  N         92.4830   21.2800   57.5310 N.3   322  THR322     -0.1218
    116  CA        91.1000   21.4060   57.0930 C.3   322  THR322      0.1862
    117  C         90.3830   22.6590   57.6070 C.2   322  THR322      0.2287
    118  O         89.7850   23.3950   56.8180 O.2   322  THR322     -0.2866
    119  CB        90.3010   20.1340   57.4600 C.3   322  THR322      0.1770
    120  OG1       90.6120   19.1050   56.5150 O.3   322  THR322     -0.2211
    121  CG2       88.7970   20.4090   57.4610 C.3   322  THR322      0.0375
    122  N         88.6950   25.8180   55.4610 N.3   326  ILE326     -0.1245
    123  CA        87.3010   26.1800   55.7080 C.3   326  ILE326      0.1561
    124  C         87.1480   27.6480   56.1170 C.2   326  ILE326      0.2260
    125  O         86.3300   28.3900   55.5560 O.2   326  ILE326     -0.2867
    126  CB        86.6930   25.2700   56.8150 C.3   326  ILE326      0.0252
    127  CG1       86.5760   23.8400   56.2890 C.3   326  ILE326      0.0019
    128  CG2       85.3310   25.7990   57.2620 C.3   326  ILE326      0.0019
    129  CD1       85.9810   22.8580   57.2930 C.3   326  ILE326      0.0001
    130  N         85.2680   30.6520   54.0280 N.3   330  ARG330     -0.1245
    131  CA        84.1180   31.3870   54.5410 C.3   330  ARG330      0.1563
    132  C         84.3950   32.8840   54.6420 C.2   330  ARG330      0.2260
    133  O         83.5420   33.7030   54.2990 O.2   330  ARG330     -0.2867
    134  CB        83.7050   30.8380   55.9050 C.3   330  ARG330      0.0307
    135  CG        83.1410   29.4370   55.8200 C.3   330  ARG330      0.0489
    136  CD        82.8360   28.8650   57.1900 C.3   330  ARG330      0.2205
    137  NE        82.2100   27.5530   57.0670 N.pl3 330  ARG330     -0.0865
    138  CZ        82.0690   26.6940   58.0690 C.cat 330  ARG330      0.5346
    139  NH1       82.5090   27.0080   59.2800 N.pl3 330  ARG330      0.1354
    140  NH2       81.4960   25.5160   57.8570 N.pl3 330  ARG330      0.1354
@<TRIPOS>BOND
     1     1     2    1
     2    18    16    1
     3    35    36    1
     4     2     3    1
     5    11    12    1
     6    16    17    1
     7    16    15    1
     8    12    15    1
     9    12    13    1
    10    24    25    1
    11    85    84    2
    12     4     3    2
    13     3     5   am
    14    37    36    1
    15    37    38    2
    16    82    81    2
    17    83    84    1
    18    83    80    1
    19    84    86   am
    20   110   109    2
    21    13    14    2
    22    13    19   am
    23   109   108    1
    24    25    26    1
    25    25    28    1
    26    81    80    1
    27   104   102   ar
    28   104   105   ar
    29    29    28    1
    30    29    30    1
    31     5     6    1
    32   102   100   ar
    33    98    97    2
    34    97    96    1
    35    80    79    1
    36    26    27    2
    37   107   108    1
    38    19    20    1
    39   106   105    1
    40   108   111    1
    41    21    22    2
    42    21    20    1
    43     7     6    1
    44     7     8    2
    45   105   103   ar
    46    30    31    1
    47    51    49    1
    48     6     9    1
    49   100    99    1
    50   100   101   ar
    51    20    23    1
    52    99    96    1
    53    96    95    1
    54    79    73   am
    55   111   112    1
    56    39    40    1
    57    31    32    2
    58    95    89   am
    59    87    88    1
    60   103   101   ar
    61     9    10    1
    62    47    48    2
    63    47    46    1
    64    74    73    2
    65    89    90    2
    66    89    88    1
    67    49    46    1
    68    49    50    1
    69    73    72    1
    70   130   131    1
    71    45    46    1
    72    45    41   am
    73    88    91    1
    74   133   132    2
    75   112   114   am
    76   112   113    2
    77    32    33    1
    78    32    34    1
    79   131   132    1
    80   131   134    1
    81    40    41    1
    82    40    43    1
    83    41    42    2
    84    43    44    1
    85    71    72    1
    86    72    75    1
    87   122   123    1
    88   125   124    2
    89   123   124    1
    90   123   126    1
    91    91    93    1
    92    91    92    1
    93   135   134    1
    94   135   136    1
    95    75    76    1
    96   127   126    1
    97   127   129    1
    98   120   119    1
    99    92    94    1
   100    62    61    2
   101    61    60    1
   102   126   128    1
   103   118   117    2
   104    59    60    1
   105   137   136    1
   106   137   138    2
   107   116   119    1
   108   116   115    1
   109   116   117    1
   110    76    77    1
   111    76    78    1
   112   119   121    1
   113    60    63    1
   114   140   138    1
   115   138   139    1
   116    56    58    1
   117    56    57    1
   118    56    53    1
   119    52    53    1
   120    63    64    1
   121    53    54    1
   122    54    55    2
   123    64    65   ar
   124    64    66   ar
   125    65    67   ar
   126    66    68   ar
   127    67    69   ar
   128    68    69   ar
   129    69    70    1
