@<TRIPOS>MOLECULE
tmp/2gh6B00.pdb
 121 117 0 0 0
SMALL
GASTEIGER

@<TRIPOS>ATOM
      1  N         16.3360   17.1010   44.5640 N.3    20  LEU20      -0.1245
      2  CA        16.7210   17.2510   45.9570 C.3    20  LEU20       0.1561
      3  C         18.2490   17.5460   46.0230 C.2    20  LEU20       0.2260
      4  O         18.6650   18.6610   46.3920 O.2    20  LEU20      -0.2867
      5  CB        16.3580   15.9780   46.7240 C.3    20  LEU20       0.0270
      6  CG        16.1490   15.9690   48.2480 C.3    20  LEU20       0.0019
      7  CD1       17.4370   15.6560   48.9440 C.3    20  LEU20       0.0001
      8  CD2       15.4940   17.2290   48.8140 C.3    20  LEU20       0.0001
      9  N         22.8690   19.4260   49.3990 N.3    99  ILE99      -0.1245
     10  CA        21.4860   19.7420   49.0450 C.3    99  ILE99       0.1561
     11  C         21.1630   21.2350   49.2480 C.2    99  ILE99       0.2260
     12  O         20.1050   21.7140   48.8030 O.2    99  ILE99      -0.2867
     13  CB        20.4150   18.8200   49.7530 C.3    99  ILE99       0.0252
     14  CG1       20.3420   19.1010   51.2570 C.3    99  ILE99       0.0019
     15  CG2       20.6350   17.3110   49.4210 C.3    99  ILE99       0.0019
     16  CD1       19.1300   18.5190   51.9610 C.3    99  ILE99       0.0001
     17  N         15.4480   26.6240   60.1840 N.3   141  HIS141     -0.1226
     18  CA        15.5300   25.8160   61.4330 C.3   141  HIS141      0.1752
     19  C         16.5320   24.6430   61.4710 C.2   141  HIS141      0.2596
     20  O         16.8100   24.1380   62.5500 O.2   141  HIS141     -0.2718
     21  CB        14.1100   25.3680   61.8890 C.3   141  HIS141      0.0759
     22  CG        13.4990   24.3030   61.0230 C.ar  141  HIS141      0.0818
     23  ND1       12.6680   23.3240   61.5230 N.ar  141  HIS141     -0.2268
     24  CD2       13.6220   24.0460   59.6970 C.ar  141  HIS141      0.1154
     25  CE1       12.3020   22.5090   60.5490 C.ar  141  HIS141      0.1986
     26  NE2       12.8550   22.9340   59.4260 N.ar  141  HIS141     -0.2212
     27  N         17.0540   24.2040   60.3180 N.am  142  HIS142     -0.1975
     28  CA        18.1210   23.1730   60.2900 C.3   142  HIS142      0.1656
     29  C         19.5240   23.7300   60.4370 C.2   142  HIS142      0.2291
     30  O         20.4570   22.9660   60.6780 O.2   142  HIS142     -0.2864
     31  CB        18.0730   22.3110   59.0170 C.3   142  HIS142      0.0771
     32  CG        16.7840   21.5710   58.8470 C.ar  142  HIS142      0.0820
     33  ND1       16.2400   20.7830   59.8430 N.ar  142  HIS142     -0.2267
     34  CD2       15.9280   21.5070   57.8070 C.ar  142  HIS142      0.1154
     35  CE1       15.0990   20.2770   59.4230 C.ar  142  HIS142      0.1986
     36  NE2       14.8890   20.6940   58.1920 N.ar  142  HIS142     -0.2212
     37  N         19.9690   21.5390   55.1040 N.3   150  GLY150     -0.1210
     38  CA        18.5700   21.3380   54.7440 C.3   150  GLY150      0.1956
     39  C         17.8660   22.5750   54.2410 C.2   150  GLY150      0.2611
     40  O         16.7980   22.9090   54.7430 O.2   150  GLY150     -0.2717
     41  N         18.4780   23.2360   53.2520 N.am  151  PHE151     -0.1976
     42  CA        17.9660   24.4540   52.5660 C.3   151  PHE151      0.1639
     43  C         18.1670   25.7390   53.3620 C.2   151  PHE151      0.2290
     44  O         17.8380   26.8440   52.8780 O.2   151  PHE151     -0.2864
     45  CB        16.4790   24.3460   52.0880 C.3   151  PHE151      0.0560
     46  CG        16.1090   23.0100   51.4470 C.ar  151  PHE151     -0.0200
     47  CD1       14.8090   22.5130   51.5670 C.ar  151  PHE151     -0.0042
     48  CD2       17.0340   22.2780   50.6940 C.ar  151  PHE151     -0.0042
     49  CE1       14.4420   21.2970   50.9800 C.ar  151  PHE151     -0.0003
     50  CE2       16.6800   21.0510   50.1070 C.ar  151  PHE151     -0.0003
     51  CZ        15.3910   20.5570   50.2550 C.ar  151  PHE151     -0.0000
     52  N          7.1390   22.8980   61.6150 N.3   179  ASP179     -0.1239
     53  CA         7.6370   22.3230   60.3780 C.3   179  ASP179      0.1674
     54  C          7.7340   20.8370   60.7190 C.2   179  ASP179      0.2266
     55  O          8.0660   20.4790   61.8710 O.2   179  ASP179     -0.2867
     56  CB         9.0040   22.9310   60.0370 C.3   179  ASP179      0.1410
     57  CG         9.5700   22.4110   58.7450 C.2   179  ASP179      0.3668
     58  OD1       10.0190   21.2540   58.7060 O.co2 179  ASP179     -0.2456
     59  OD2        9.6270   23.1840   57.7600 O.co2 179  ASP179     -0.2456
     60  N          9.7530   18.6080   59.9910 N.3   181  HIS181     -0.1241
     61  CA        11.0930   18.0980   60.2150 C.3   181  HIS181      0.1621
     62  C         11.6830   18.6840   61.4930 C.2   181  HIS181      0.2264
     63  O         11.3110   19.7850   61.9230 O.2   181  HIS181     -0.2867
     64  CB        11.9930   18.3790   59.0140 C.3   181  HIS181      0.0745
     65  CG        11.4260   17.9030   57.7090 C.ar  181  HIS181      0.0817
     66  ND1       10.8550   18.7580   56.7880 N.ar  181  HIS181     -0.2268
     67  CD2       11.3590   16.6620   57.1600 C.ar  181  HIS181      0.1154
     68  CE1       10.4850   18.0720   55.7220 C.ar  181  HIS181      0.1986
     69  NE2       10.7600   16.7970   55.9360 N.ar  181  HIS181     -0.2212
     70  N         12.3720   11.8720   60.2800 N.3   206  CYS206     -0.1221
     71  CA        12.0590   12.2230   58.9000 C.3   206  CYS206      0.1808
     72  C         13.2500   13.0030   58.3360 C.2   206  CYS206      0.2601
     73  O         13.8390   12.6160   57.3240 O.2   206  CYS206     -0.2717
     74  CB        10.7290   13.0120   58.8290 C.3   206  CYS206      0.0970
     75  SG        10.2640   13.4840   57.1420 S.3   206  CYS206     -0.0800
     76  N         13.6380   14.0820   59.0150 N.am  207  PHE207     -0.1976
     77  CA        14.8640   14.8130   58.6710 C.3   207  PHE207      0.1639
     78  C         15.2070   15.7980   59.8000 C.2   207  PHE207      0.2290
     79  O         14.3390   16.5400   60.2200 O.2   207  PHE207     -0.2864
     80  CB        14.7810   15.5830   57.3320 C.3   207  PHE207      0.0560
     81  CG        16.0800   16.2670   56.9850 C.ar  207  PHE207     -0.0200
     82  CD1       17.0830   15.5750   56.3170 C.ar  207  PHE207     -0.0042
     83  CD2       16.3390   17.5630   57.4160 C.ar  207  PHE207     -0.0042
     84  CE1       18.3160   16.1750   56.0370 C.ar  207  PHE207     -0.0003
     85  CE2       17.5540   18.1780   57.1430 C.ar  207  PHE207     -0.0003
     86  CZ        18.5490   17.4810   56.4440 C.ar  207  PHE207     -0.0000
     87  N         18.2520   12.5690   59.6870 N.pl3 209  PRO209     -0.2301
     88  CA        18.1660   11.1800   60.1890 C.3   209  PRO209      0.1611
     89  C         18.7690   11.1420   61.5990 C.2   209  PRO209      0.2289
     90  O         19.4600   12.0890   61.9650 O.2   209  PRO209     -0.2864
     91  CB        19.0100   10.3730   59.1880 C.3   209  PRO209      0.0570
     92  CG        19.6910   11.3730   58.2960 C.2   209  PRO209     -0.0065
     93  CD        19.2360   12.7470   58.5960 C.2   209  PRO209      0.0760
     94  N          4.8170   21.6160   55.9500 N.3   267  ASP267     -0.1239
     95  CA         5.1170   20.3010   55.3350 C.3   267  ASP267      0.1674
     96  C          4.5200   19.1030   56.0900 C.2   267  ASP267      0.2266
     97  O          4.6610   17.9490   55.6830 O.2   267  ASP267     -0.2867
     98  CB         6.6100   20.1420   55.0250 C.3   267  ASP267      0.1410
     99  CG         7.5230   20.6950   56.1330 C.2   267  ASP267      0.3668
    100  OD1        7.0500   21.1340   57.2090 O.co2 267  ASP267     -0.2456
    101  OD2        8.7460   20.6830   55.9080 O.co2 267  ASP267     -0.2456
    102  N          7.2490   15.7210   51.1030 N.3   274  LEU274     -0.1245
    103  CA         8.4300   15.5280   51.9600 C.3   274  LEU274      0.1561
    104  C          8.1250   15.0550   53.4050 C.2   274  LEU274      0.2260
    105  O          9.0150   15.0180   54.2490 O.2   274  LEU274     -0.2867
    106  CB         9.3300   16.7570   51.9360 C.3   274  LEU274      0.0270
    107  CG        10.2330   16.8720   50.7000 C.3   274  LEU274      0.0019
    108  CD1       11.0790   18.1500   50.7500 C.3   274  LEU274      0.0001
    109  CD2       11.1550   15.6600   50.6930 C.3   274  LEU274      0.0001
    110  N          6.0040   21.9650   50.8590 N.3   311  TYR311     -0.1241
    111  CA         6.3810   21.6270   49.4770 C.3   311  TYR311      0.1605
    112  C          5.2040   21.3430   48.5150 C.2   311  TYR311      0.2264
    113  O          5.4390   21.0000   47.3600 O.2   311  TYR311     -0.2867
    114  CB         7.4300   20.4820   49.5070 C.3   311  TYR311      0.0534
    115  CG         8.5800   20.9070   50.3880 C.ar  311  TYR311     -0.0201
    116  CD1        9.5640   21.7490   49.8780 C.ar  311  TYR311     -0.0009
    117  CD2        8.6170   20.5720   51.7390 C.ar  311  TYR311     -0.0009
    118  CE1       10.5940   22.2210   50.6700 C.ar  311  TYR311      0.0417
    119  CE2        9.6540   21.0530   52.5700 C.ar  311  TYR311      0.0417
    120  CZ        10.6400   21.8760   52.0110 C.ar  311  TYR311      0.1957
    121  OH        11.6730   22.3790   52.7340 O.3   311  TYR311     -0.2866
@<TRIPOS>BOND
     1     1     2    1
     2     2     3    1
     3     2     5    1
     4     3     4    2
     5     5     6    1
     6   113   112    2
     7     6     8    1
     8     6     7    1
     9   112   111    1
    10    12    11    2
    11    10    11    1
    12    10     9    1
    13    10    13    1
    14    15    13    1
    15   111   114    1
    16   111   110    1
    17   114   115    1
    18    13    14    1
    19   116   115   ar
    20   116   118   ar
    21    50    51   ar
    22    50    48   ar
    23    51    49   ar
    24   115   117   ar
    25   118   120   ar
    26   109   107    1
    27    48    46   ar
    28   107   108    1
    29   107   106    1
    30    49    47   ar
    31   102   103    1
    32    14    16    1
    33    46    47   ar
    34    46    45    1
    35   117   119   ar
    36   106   103    1
    37   103   104    1
    38   120   119   ar
    39   120   121    1
    40    45    42    1
    41    42    41    1
    42    42    43    1
    43    44    43    2
    44    41    39   am
    45   104   105    2
    46    39    40    2
    47    39    38    1
    48    38    37    1
    49    98    95    1
    50    98    99    1
    51    95    94    1
    52    95    96    1
    53    97    96    2
    54    68    69   ar
    55    68    66   ar
    56   101    99   ar
    57    69    67   ar
    58    84    82   ar
    59    84    86   ar
    60    99   100   ar
    61    82    81   ar
    62    86    85   ar
    63    66    65   ar
    64    81    80    1
    65    81    83   ar
    66    75    74    1
    67    85    83   ar
    68    67    65   ar
    69    73    72    2
    70    80    77    1
    71    65    64    1
    72    59    57   ar
    73    34    36   ar
    74    34    32   ar
    75    36    35   ar
    76    92    93    2
    77    92    91    1
    78    72    71    1
    79    72    76   am
    80    93    87    1
    81    77    76    1
    82    77    78    1
    83    58    57   ar
    84    57    56    1
    85    74    71    1
    86    32    31    1
    87    32    33   ar
    88    71    70    1
    89    64    61    1
    90    31    28    1
    91    91    88    1
    92    35    33   ar
    93    26    24   ar
    94    26    25   ar
    95    87    88    1
    96    24    22   ar
    97    78    79    2
    98    60    61    1
    99    56    53    1
   100    17    18    1
   101    88    89    1
   102    61    62    1
   103    28    27    1
   104    28    29    1
   105    27    19   am
   106    53    54    1
   107    53    52    1
   108    29    30    2
   109    25    23   ar
   110    54    55    2
   111    22    23   ar
   112    22    21    1
   113    18    19    1
   114    18    21    1
   115    19    20    2
   116    62    63    2
   117    89    90    2
