@<TRIPOS>MOLECULE
tmp/2gh9A00.pdb
 206 205 0 0 0
SMALL
GASTEIGER

@<TRIPOS>ATOM
      1  N         15.5210   22.1000   19.0850 N.3     7  HIS7       -0.1226
      2  CA        16.9780   22.2060   18.8910 C.3     7  HIS7        0.1752
      3  C         17.3950   21.8190   17.4710 C.2     7  HIS7        0.2596
      4  O         18.5940   21.7400   17.1420 O.2     7  HIS7       -0.2718
      5  CB        17.7510   21.3590   19.9070 C.3     7  HIS7        0.0759
      6  CG        17.3300   19.9180   19.9820 C.ar    7  HIS7        0.0818
      7  ND1       17.9230   18.9240   19.2300 N.ar    7  HIS7       -0.2268
      8  CD2       16.4270   19.2930   20.7810 C.ar    7  HIS7        0.1154
      9  CE1       17.3730   17.7590   19.5300 C.ar    7  HIS7        0.1986
     10  NE2       16.4810   17.9510   20.4880 N.ar    7  HIS7       -0.2212
     11  N         16.4010   21.5920   16.6200 N.am    8  PHE8       -0.1962
     12  CA        16.6610   21.2030   15.2600 C.3     8  PHE8        0.1771
     13  C         17.1880   22.3940   14.4470 C.2     8  PHE8        0.2620
     14  O         16.8240   23.5560   14.6810 O.2     8  PHE8       -0.2715
     15  CB        15.3850   20.6780   14.5730 C.3     8  PHE8        0.0574
     16  CG        14.8070   19.4320   15.1770 C.ar    8  PHE8       -0.0200
     17  CD1       15.4980   18.6760   16.1160 C.ar    8  PHE8       -0.0042
     18  CD2       13.5460   19.0080   14.7890 C.ar    8  PHE8       -0.0042
     19  CE1       14.9480   17.5430   16.6530 C.ar    8  PHE8       -0.0003
     20  CE2       12.9890   17.8750   15.3170 C.ar    8  PHE8       -0.0003
     21  CZ        13.6950   17.1280   16.2400 C.ar    8  PHE8       -0.0000
     22  N         18.0410   22.0790   13.4810 N.am    9  GLY9       -0.1954
     23  CA        18.4480   23.0280   12.4590 C.3     9  GLY9        0.1869
     24  C         18.4070   22.3580   11.1190 C.2     9  GLY9        0.2309
     25  O         18.0380   21.1820   11.0140 O.2     9  GLY9       -0.2863
     26  N         16.2250   19.2120    9.1780 N.3    12  GLU12      -0.1245
     27  CA        15.3160   18.7500   10.2380 C.3    12  GLU12       0.1567
     28  C         14.3640   19.8310   10.6720 C.2    12  GLU12       0.2260
     29  O         13.1650   19.5660   10.8540 O.2    12  GLU12      -0.2867
     30  CB        16.0750   18.2390   11.4610 C.3    12  GLU12       0.0388
     31  CG        16.7660   16.9050   11.2660 C.3    12  GLU12       0.1160
     32  CD        17.4070   16.3990   12.5560 C.2    12  GLU12       0.3649
     33  OE1       17.5810   17.2020   13.4860 O.co2  12  GLU12      -0.2457
     34  OE2       17.7380   15.1940   12.6540 O.co2  12  GLU12      -0.2457
     35  N         20.2290   23.2100   22.1860 N.3    38  PHE38      -0.1241
     36  CA        19.9680   21.9470   22.8750 C.3    38  PHE38       0.1605
     37  C         20.3330   22.0060   24.3510 C.2    38  PHE38       0.2264
     38  O         19.5500   21.5810   25.2090 O.2    38  PHE38      -0.2867
     39  CB        20.7350   20.8110   22.1750 C.3    38  PHE38       0.0534
     40  CG        20.7350   19.5120   22.9320 C.ar   38  PHE38      -0.0203
     41  CD1       19.6770   18.6230   22.7950 C.ar   38  PHE38      -0.0042
     42  CD2       21.7750   19.1830   23.7810 C.ar   38  PHE38      -0.0042
     43  CE1       19.6780   17.4290   23.4850 C.ar   38  PHE38      -0.0003
     44  CE2       21.7760   17.9840   24.4980 C.ar   38  PHE38      -0.0003
     45  CZ        20.7360   17.1130   24.3480 C.ar   38  PHE38      -0.0000
     46  N         16.4330   22.0960   28.5690 N.3    42  LYS42      -0.1245
     47  CA        15.9430   21.4280   29.7860 C.3    42  LYS42       0.1561
     48  C         15.7150   22.4250   30.9430 C.2    42  LYS42       0.2260
     49  O         14.6540   22.4220   31.5680 O.2    42  LYS42      -0.2867
     50  CB        16.8810   20.2800   30.2160 C.3    42  LYS42       0.0271
     51  CG        16.3790   19.5130   31.4750 C.3    42  LYS42       0.0035
     52  CD        17.0410   18.1460   31.7250 C.3    42  LYS42       0.0206
     53  CE        18.5560   18.1850   31.8700 C.3    42  LYS42       0.1093
     54  NZ        19.0750   19.1570   32.8680 N.3    42  LYS42      -0.1314
     55  N         15.7910   14.4330   24.4580 N.3    62  PRO62      -0.2116
     56  CA        16.3920   13.1180   24.6440 C.3    62  PRO62       0.1372
     57  C         15.8160   12.4940   25.9000 C.2    62  PRO62       0.2244
     58  O         15.4800   13.1990   26.8540 O.2    62  PRO62      -0.2868
     59  CB        17.8870   13.4300   24.8300 C.3    62  PRO62       0.0268
     60  CG        17.8770   14.7710   25.4670 C.3    62  PRO62       0.0207
     61  CD        16.6970   15.5090   24.8790 C.3    62  PRO62       0.0892
     62  N         17.0410   10.8740   28.3770 N.3    64  ASP64      -0.1225
     63  CA        17.7200   10.9710   29.6740 C.3    64  ASP64       0.1805
     64  C         17.1390   12.1030   30.5330 C.2    64  ASP64       0.2597
     65  O         17.2430   12.0710   31.7580 O.2    64  ASP64      -0.2718
     66  CB        19.2480   11.0620   29.5200 C.3    64  ASP64       0.1424
     67  CG        19.6950   12.3050   28.8290 C.2    64  ASP64       0.3668
     68  OD1       19.3940   12.4730   27.6000 O.co2  64  ASP64      -0.2456
     69  OD2       20.3670   13.1090   29.5130 O.co2  64  ASP64      -0.2456
     70  N         16.4980   13.0790   29.8960 N.am   65  TRP65      -0.1976
     71  CA        15.8420   14.1870   30.5960 C.3    65  TRP65       0.1640
     72  C         14.5090   13.8260   31.3060 C.2    65  TRP65       0.2290
     73  O         14.0090   14.6380   32.0890 O.2    65  TRP65      -0.2864
     74  CB        15.5080   15.2920   29.6040 C.3    65  TRP65       0.0576
     75  CG        16.6510   15.9750   28.9600 C.ar   65  TRP65       0.0006
     76  CD1       17.9880   15.7000   29.1170 C.ar   65  TRP65       0.0946
     77  CD2       16.5680   17.0540   28.0300 C.ar   65  TRP65       0.0152
     78  NE1       18.7320   16.5560   28.3520 N.ar   65  TRP65      -0.2442
     79  CE2       17.8890   17.4040   27.6780 C.ar   65  TRP65       0.0810
     80  CE3       15.5060   17.7770   27.4700 C.ar   65  TRP65       0.0012
     81  CZ2       18.1760   18.4270   26.7730 C.ar   65  TRP65       0.0191
     82  CZ3       15.7880   18.7940   26.5660 C.ar   65  TRP65       0.0001
     83  CH2       17.1150   19.1200   26.2340 C.ar   65  TRP65       0.0015
     84  N         18.8970    7.2050   18.0720 N.3   112  GLU112     -0.1245
     85  CA        20.1500    7.7490   17.5980 C.3   112  GLU112      0.1567
     86  C         21.2950    7.2470   18.4510 C.2   112  GLU112      0.2260
     87  O         21.1130    6.8630   19.5900 O.2   112  GLU112     -0.2867
     88  CB        20.1090    9.2670   17.6970 C.3   112  GLU112      0.0388
     89  CG        19.8790    9.7760   19.1290 C.3   112  GLU112      0.1160
     90  CD        19.5560   11.2390   19.1950 C.2   112  GLU112      0.3649
     91  OE1       19.2530   11.7910   18.1350 O.co2 112  GLU112     -0.2457
     92  OE2       19.6300   11.8510   20.3000 O.co2 112  GLU112     -0.2457
     93  N         34.0000   15.7980   19.2630 N.3   151  ASN151     -0.1240
     94  CA        33.7890   16.5810   20.4780 C.3   151  ASN151      0.1653
     95  C         34.4200   15.9050   21.6980 C.2   151  ASN151      0.2266
     96  O         33.7430   15.3350   22.5360 O.2   151  ASN151     -0.2867
     97  CB        32.2840   16.8420   20.6740 C.3   151  ASN151      0.1155
     98  CG        31.9970   17.9050   21.6940 C.2   151  ASN151      0.2627
     99  OD1       32.9080   18.5290   22.2620 O.2   151  ASN151     -0.2716
    100  ND2       30.6980   18.1370   21.9380 N.am  151  ASN151     -0.0877
    101  N         33.2660   16.0900   25.4760 N.3   154  ASP154     -0.1225
    102  CA        31.8810   15.7170   25.7990 C.3   154  ASP154      0.1790
    103  C         31.7180   14.2860   26.3920 C.2   154  ASP154      0.2440
    104  O         32.1300   13.3080   25.7870 O.2   154  ASP154     -0.2733
    105  CB        31.0440   15.9050   24.5310 C.3   154  ASP154      0.1423
    106  CG        29.5410   15.8950   24.7880 C.2   154  ASP154      0.3668
    107  OD1       29.0550   14.8840   25.3020 O.co2 154  ASP154     -0.2456
    108  OD2       28.8440   16.8780   24.4280 O.co2 154  ASP154     -0.2456
    109  N         31.0970   14.1590   27.5700 N.am  155  PRO155     -0.2718
    110  CA        30.9650   12.8310   28.2270 C.3   155  PRO155      0.1535
    111  C         30.0920   11.7850   27.4760 C.2   155  PRO155      0.2599
    112  O         30.4660   10.5970   27.3590 O.2   155  PRO155     -0.2715
    113  CB        30.3610   13.1730   29.6020 C.3   155  PRO155      0.0310
    114  CG        29.7770   14.5110   29.4680 C.3   155  PRO155      0.0237
    115  CD        30.4750   15.2390   28.3620 C.3   155  PRO155      0.0939
    116  N         28.9500   12.2330   26.9660 N.am  156  TYR156     -0.1960
    117  CA        28.1340   11.4280   26.0180 C.3   156  TYR156      0.1771
    118  C         28.9310   10.8700   24.8170 C.2   156  TYR156      0.2619
    119  O         28.8620    9.6850   24.5150 O.2   156  TYR156     -0.2715
    120  CB        26.9710   12.2870   25.5170 C.3   156  TYR156      0.0574
    121  CG        26.0930   11.6720   24.4480 C.ar  156  TYR156     -0.0198
    122  CD1       24.9860   10.9420   24.7940 C.ar  156  TYR156     -0.0009
    123  CD2       26.3610   11.8800   23.0880 C.ar  156  TYR156     -0.0009
    124  CE1       24.1540   10.4060   23.8420 C.ar  156  TYR156      0.0417
    125  CE2       25.5610   11.3380   22.1220 C.ar  156  TYR156      0.0417
    126  CZ        24.4310   10.5990   22.5040 C.ar  156  TYR156      0.1957
    127  OH        23.5830   10.0350   21.5760 O.3   156  TYR156     -0.2866
    128  N         29.6930   11.7130   24.1300 N.am  157  PHE157     -0.1974
    129  CA        30.4630   11.2550   22.9510 C.3   157  PHE157      0.1639
    130  C         31.5140   10.1980   23.3100 C.2   157  PHE157      0.2290
    131  O         31.7870    9.2680   22.5370 O.2   157  PHE157     -0.2864
    132  CB        31.1320   12.4550   22.2720 C.3   157  PHE157      0.0560
    133  CG        30.2310   13.2060   21.3500 C.ar  157  PHE157     -0.0200
    134  CD1       30.3610   13.0620   19.9770 C.ar  157  PHE157     -0.0042
    135  CD2       29.2640   14.0520   21.8410 C.ar  157  PHE157     -0.0042
    136  CE1       29.5390   13.7530   19.1270 C.ar  157  PHE157     -0.0003
    137  CE2       28.4280   14.7320   20.9870 C.ar  157  PHE157     -0.0003
    138  CZ        28.5830   14.6000   19.6290 C.ar  157  PHE157     -0.0000
    139  N         32.2610   20.4510   19.4950 N.3   214  TYR214     -0.1241
    140  CA        31.2930   19.9720   18.5200 C.3   214  TYR214      0.1605
    141  C         31.3970   20.7170   17.1910 C.2   214  TYR214      0.2264
    142  O         31.4780   20.1010   16.1430 O.2   214  TYR214     -0.2867
    143  CB        29.8480   20.0700   19.0510 C.3   214  TYR214      0.0534
    144  CG        28.9310   19.3810   18.0940 C.ar  214  TYR214     -0.0201
    145  CD1       28.7330   18.0040   18.1590 C.ar  214  TYR214     -0.0009
    146  CD2       28.3650   20.0760   17.0380 C.ar  214  TYR214     -0.0009
    147  CE1       27.9330   17.3540   17.2110 C.ar  214  TYR214      0.0417
    148  CE2       27.5770   19.4480   16.1100 C.ar  214  TYR214      0.0417
    149  CZ        27.3640   18.0840   16.1990 C.ar  214  TYR214      0.1957
    150  OH        26.5910   17.4860   15.2500 O.3   214  TYR214     -0.2866
    151  N         21.7460   13.0350   13.9260 N.3   234  TRP234     -0.1241
    152  CA        21.3270   14.4330   13.9780 C.3   234  TRP234      0.1605
    153  C         22.1290   15.3610   13.0800 C.2   234  TRP234      0.2264
    154  O         21.6760   16.4800   12.8100 O.2   234  TRP234     -0.2867
    155  CB        21.4000   14.9870   15.4200 C.3   234  TRP234      0.0550
    156  CG        22.7320   14.8100   16.0380 C.ar  234  TRP234      0.0003
    157  CD1       23.8360   15.6110   15.8940 C.ar  234  TRP234      0.0946
    158  CD2       23.1220   13.7300   16.8770 C.ar  234  TRP234      0.0152
    159  NE1       24.8990   15.0770   16.6060 N.ar  234  TRP234     -0.2442
    160  CE2       24.4790   13.9240   17.2150 C.ar  234  TRP234      0.0810
    161  CE3       22.4520   12.6030   17.3790 C.ar  234  TRP234      0.0012
    162  CZ2       25.1660   13.0550   18.0620 C.ar  234  TRP234      0.0191
    163  CZ3       23.1360   11.7480   18.2210 C.ar  234  TRP234      0.0001
    164  CH2       24.4870   11.9750   18.5410 C.ar  234  TRP234      0.0015
    165  N         14.8400   10.2320   21.0850 N.3   268  GLN268     -0.1245
    166  CA        14.2430   11.5480   21.0360 C.3   268  GLN268      0.1566
    167  C         12.7210   11.4010   20.9860 C.2   268  GLN268      0.2260
    168  O         12.2020   10.6190   20.2030 O.2   268  GLN268     -0.2867
    169  CB        14.7320   12.3120   19.8130 C.3   268  GLN268      0.0367
    170  CG        16.2290   12.6110   19.8040 C.3   268  GLN268      0.0905
    171  CD        16.6200   13.8570   20.5810 C.2   268  GLN268      0.2608
    172  OE1       15.8350   14.7880   20.7390 O.2   268  GLN268     -0.2717
    173  NE2       17.8570   13.8780   21.0630 N.am  268  GLN268     -0.0878
    174  N         17.9550   10.5440   11.6850 N.3   304  ARG304     -0.1245
    175  CA        17.6360    9.8390   12.9340 C.3   304  ARG304      0.1563
    176  C         16.6440    8.7090   12.6360 C.2   304  ARG304      0.2260
    177  O         15.8430    8.8040   11.7100 O.2   304  ARG304     -0.2867
    178  CB        17.0590   10.7910   13.9930 C.3   304  ARG304      0.0307
    179  CG        17.9400   11.9980   14.2660 C.3   304  ARG304      0.0489
    180  CD        17.4080   12.7810   15.3840 C.3   304  ARG304      0.2205
    181  NE        17.7350   14.2010   15.2880 N.pl3 304  ARG304     -0.0865
    182  CZ        18.1620   14.9430   16.2960 C.cat 304  ARG304      0.5346
    183  NH1       18.3510   14.4230   17.5120 N.pl3 304  ARG304      0.1354
    184  NH2       18.3990   16.2220   16.1010 N.pl3 304  ARG304      0.1354
    185  N         20.8700    5.3040   27.3890 N.3   334  MET334     -0.1245
    186  CA        21.0550    6.2050   28.5000 C.3   334  MET334      0.1570
    187  C         20.0440    5.8870   29.6170 C.2   334  MET334      0.2261
    188  O         18.9020    5.4960   29.3370 O.2   334  MET334     -0.2867
    189  CB        20.8580    7.6530   28.0600 C.3   334  MET334      0.0387
    190  CG        22.0210    8.2030   27.3030 C.3   334  MET334      0.0595
    191  SD        21.8540    9.9140   26.9600 S.3   334  MET334     -0.1393
    192  CE        20.5320    9.9330   25.7290 C.3   334  MET334      0.0692
    193  N         26.4480   14.2510   34.2420 N.3   344  TRP344     -0.1241
    194  CA        27.0690   14.8080   33.0390 C.3   344  TRP344      0.1605
    195  C         28.1050   15.9000   33.3270 C.2   344  TRP344      0.2264
    196  O         29.1570   15.9650   32.6790 O.2   344  TRP344     -0.2867
    197  CB        25.9960   15.3900   32.1060 C.3   344  TRP344      0.0550
    198  CG        24.9460   14.4330   31.5960 C.ar  344  TRP344      0.0003
    199  CD1       23.5980   14.5270   31.7860 C.ar  344  TRP344      0.0946
    200  CD2       25.1450   13.2850   30.7440 C.ar  344  TRP344      0.0152
    201  NE1       22.9560   13.5160   31.1430 N.ar  344  TRP344     -0.2442
    202  CE2       23.8710   12.7350   30.4900 C.ar  344  TRP344      0.0810
    203  CE3       26.2700   12.6730   30.1800 C.ar  344  TRP344      0.0012
    204  CZ2       23.6870   11.6000   29.6960 C.ar  344  TRP344      0.0191
    205  CZ3       26.0910   11.5450   29.4110 C.ar  344  TRP344      0.0001
    206  CH2       24.8000   11.0180   29.1700 C.ar  344  TRP344      0.0015
@<TRIPOS>BOND
     1    26    27    1
     2    27    28    1
     3    27    30    1
     4    28    29    2
     5    25    24    2
     6    24    23    1
     7    31    30    1
     8    31    32    1
     9   174   175    1
    10   177   176    2
    11    23    22    1
    12    32    34   ar
    13    32    33   ar
    14   176   175    1
    15   154   153    2
    16   175   178    1
    17   153   152    1
    18    22    13   am
    19   151   152    1
    20   152   155    1
    21   178   179    1
    22   179   180    1
    23    13    14    2
    24    13    12    1
    25    15    16    1
    26    15    12    1
    27    18    16   ar
    28    18    20   ar
    29    16    17   ar
    30   150   149    1
    31    12    11    1
    32   181   180    1
    33   181   182    2
    34    20    21   ar
    35   155   156    1
    36   157   156   ar
    37   157   159   ar
    38   156   158   ar
    39   184   182    1
    40   148   149   ar
    41   148   146   ar
    42    17    19   ar
    43   142   141    2
    44   149   147   ar
    45    21    19   ar
    46   182   183    1
    47   159   160   ar
    48    11     3   am
    49   158   160   ar
    50   158   161   ar
    51   146   144   ar
    52     4     3    2
    53   141   140    1
    54   147   145   ar
    55   160   162   ar
    56   161   163   ar
    57     3     2    1
    58    85    88    1
    59    85    84    1
    60    85    86    1
    61    88    89    1
    62   162   164   ar
    63   144   145   ar
    64   144   143    1
    65    91    90   ar
    66   163   164   ar
    67    86    87    2
    68   140   143    1
    69   140   139    1
    70     2     1    1
    71     2     5    1
    72   136   138   ar
    73   136   134   ar
    74    89    90    1
    75    90    92   ar
    76     7     9   ar
    77     7     6   ar
    78    93    94    1
    79     9    10   ar
    80   138   137   ar
    81   170   169    1
    82   170   171    1
    83   169   166    1
    84     5     6    1
    85   134   133   ar
    86     6     8   ar
    87   168   167    2
    88    94    97    1
    89    94    95    1
    90    10     8   ar
    91   171   172    2
    92   171   173   am
    93    97    98    1
    94   167   166    1
    95   137   135   ar
    96   166   165    1
    97   133   135   ar
    98   133   132    1
    99   127   126    1
   100    98   100   am
   101    98    99    2
   102    95    96    2
   103   125   126   ar
   104   125   123   ar
   105    39    36    1
   106    39    40    1
   107    35    36    1
   108   132   129    1
   109   126   124   ar
   110   131   130    2
   111    41    40   ar
   112    41    43   ar
   113    36    37    1
   114    40    42   ar
   115   129   130    1
   116   129   128    1
   117   123   121   ar
   118    43    45   ar
   119    42    44   ar
   120   124   122   ar
   121   128   118   am
   122    45    44   ar
   123    37    38    2
   124   108   106   ar
   125   121   122   ar
   126   121   120    1
   127    55    56    1
   128    55    61    1
   129   119   118    2
   130   105   106    1
   131   105   102    1
   132    56    59    1
   133    56    57    1
   134   106   107   ar
   135   118   117    1
   136    59    60    1
   137    61    60    1
   138   101   102    1
   139   120   117    1
   140   192   191    1
   141   104   103    2
   142   102   103    1
   143    57    58    2
   144   117   116    1
   145    83    82   ar
   146    83    81   ar
   147   103   109   am
   148    82    80   ar
   149    81    79   ar
   150   191   190    1
   151   116   111   am
   152   190   189    1
   153   112   111    2
   154   185   186    1
   155    80    77   ar
   156   111   110    1
   157   109   110    1
   158   109   115    1
   159    68    67   ar
   160    79    77   ar
   161    79    78   ar
   162    77    75   ar
   163   189   186    1
   164   110   113    1
   165    78    76   ar
   166   115   114    1
   167    62    63    1
   168   186   187    1
   169    46    47    1
   170    67    69   ar
   171    67    66    1
   172    75    76   ar
   173    75    74    1
   174   206   205   ar
   175   206   204   ar
   176   188   187    2
   177   205   203   ar
   178   114   113    1
   179    66    63    1
   180    74    71    1
   181    63    64    1
   182   204   202   ar
   183    47    50    1
   184    47    48    1
   185    70    64   am
   186    70    71    1
   187   203   200   ar
   188    50    51    1
   189   202   200   ar
   190   202   201   ar
   191    64    65    2
   192    71    72    1
   193   200   198   ar
   194    48    49    2
   195   201   199   ar
   196    72    73    2
   197    51    52    1
   198   198   199   ar
   199   198   197    1
   200    52    53    1
   201    53    54    1
   202   197   194    1
   203   196   195    2
   204   194   195    1
   205   194   193    1
