@<TRIPOS>MOLECULE
tmp/2ghaB00.pdb
 207 202 0 0 0
SMALL
GASTEIGER

@<TRIPOS>ATOM
      1  N         29.6980   59.9470  127.1890 N.3    10  SER10      -0.1202
      2  CA        30.6520   58.9840  127.6740 C.3    10  SER10       0.2020
      3  C         31.1800   58.0820  126.5630 C.2    10  SER10       0.2619
      4  O         30.6900   58.1050  125.4220 O.2    10  SER10      -0.2717
      5  CB        30.0220   58.1420  128.7800 C.3    10  SER10       0.2103
      6  OG        29.2920   57.0460  128.2470 O.3    10  SER10      -0.2182
      7  N         32.1590   57.2450  126.8980 N.am   11  GLU11      -0.1965
      8  CA        32.7650   56.3880  125.8940 C.3    11  GLU11       0.1733
      9  C         31.7800   55.3350  125.3920 C.2    11  GLU11       0.2616
     10  O         31.9880   54.8040  124.3040 O.2    11  GLU11      -0.2715
     11  CB        34.0460   55.7140  126.4030 C.3    11  GLU11       0.0429
     12  CG        33.8330   54.5500  127.3460 C.3    11  GLU11       0.1163
     13  CD        33.7620   54.9580  128.7820 C.2    11  GLU11       0.3649
     14  OE1       33.7520   56.1880  129.0410 O.co2  11  GLU11      -0.2457
     15  OE2       33.7390   54.0450  129.6450 O.co2  11  GLU11      -0.2457
     16  N         30.7070   55.0590  126.1590 N.am   12  LYS12      -0.1963
     17  CA        29.7460   54.0320  125.7760 C.3    12  LYS12       0.1728
     18  C         28.9610   54.4240  124.5340 C.2    12  LYS12       0.2616
     19  O         28.6100   53.5490  123.7310 O.2    12  LYS12      -0.2715
     20  CB        28.7820   53.6970  126.9200 C.3    12  LYS12       0.0311
     21  CG        29.4680   53.2450  128.2030 C.3    12  LYS12       0.0038
     22  CD        30.3830   52.0280  128.0090 C.3    12  LYS12       0.0206
     23  CE        30.9760   51.5080  129.3210 C.3    12  LYS12       0.1093
     24  NZ        31.7560   50.2280  129.1060 N.3    12  LYS12      -0.1314
     25  N         28.6730   55.7160  124.3700 N.am   13  GLN13      -0.1977
     26  CA        27.7910   56.1480  123.2740 C.3    13  GLN13       0.1601
     27  C         28.5250   56.7270  122.0690 C.2    13  GLN13       0.2287
     28  O         27.9300   56.9290  121.0120 O.2    13  GLN13      -0.2864
     29  CB        26.7720   57.1830  123.7420 C.3    13  GLN13       0.0394
     30  CG        25.9450   56.7840  124.9500 C.3    13  GLN13       0.0908
     31  CD        26.5550   57.1880  126.2720 C.2    13  GLN13       0.2608
     32  OE1       27.7190   57.6170  126.3300 O.2    13  GLN13      -0.2717
     33  NE2       25.8040   57.0280  127.3350 N.am   13  GLN13      -0.0878
     34  N         32.2460   60.2130  131.8460 N.3    39  PHE39      -0.1227
     35  CA        30.9030   60.3800  132.4240 C.3    39  PHE39       0.1736
     36  C         30.8990   61.2340  133.6950 C.2    39  PHE39       0.2595
     37  O         30.0470   62.1250  133.8770 O.2    39  PHE39      -0.2718
     38  CB        30.2590   59.0320  132.7350 C.3    39  PHE39       0.0547
     39  CG        28.9270   59.1480  133.4280 C.ar   39  PHE39      -0.0202
     40  CD1       27.7580   59.4010  132.7150 C.ar   39  PHE39      -0.0042
     41  CD2       28.8400   59.0070  134.8130 C.ar   39  PHE39      -0.0042
     42  CE1       26.5190   59.5120  133.3780 C.ar   39  PHE39      -0.0003
     43  CE2       27.6140   59.1180  135.4680 C.ar   39  PHE39      -0.0003
     44  CZ        26.4660   59.3770  134.7650 C.ar   39  PHE39      -0.0000
     45  N         31.8450   60.9330  134.5780 N.am   40  GLN40      -0.1979
     46  CA        31.8850   61.5830  135.8930 C.3    40  GLN40       0.1601
     47  C         32.3380   63.0390  135.8240 C.2    40  GLN40       0.2287
     48  O         32.3620   63.7050  136.8510 O.2    40  GLN40      -0.2864
     49  CB        32.7470   60.8030  136.8900 C.3    40  GLN40       0.0394
     50  CG        34.1800   60.7210  136.5240 C.3    40  GLN40       0.0908
     51  CD        34.4890   59.5910  135.5510 C.2    40  GLN40       0.2608
     52  OE1       33.5910   58.8590  135.0870 O.2    40  GLN40      -0.2717
     53  NE2       35.7780   59.4400  135.2310 N.am   40  GLN40      -0.0878
     54  N         28.7910   66.5390  133.8290 N.3    43  LYS43      -0.1245
     55  CA        27.9640   67.5420  134.4910 C.3    43  LYS43       0.1561
     56  C         28.7990   68.7180  134.9960 C.2    43  LYS43       0.2260
     57  O         28.4090   69.8480  134.7760 O.2    43  LYS43      -0.2867
     58  CB        27.1640   66.9650  135.6550 C.3    43  LYS43       0.0271
     59  CG        26.0420   67.9100  136.1520 C.3    43  LYS43       0.0035
     60  CD        25.2380   67.3450  137.2880 C.3    43  LYS43       0.0206
     61  CE        26.1690   67.2890  138.5240 C.3    43  LYS43       0.1093
     62  NZ        25.5630   67.2780  139.8090 N.3    43  LYS43      -0.1314
     63  N         22.6870   61.0790  132.8190 N.3    62  ALA62      -0.1245
     64  CA        21.7120   60.4670  133.7480 C.3    62  ALA62       0.1562
     65  C         20.6220   61.4290  134.1920 C.2    62  ALA62       0.2260
     66  O         20.8650   62.6340  134.3570 O.2    62  ALA62      -0.2867
     67  CB        22.4310   59.9400  134.9620 C.3    62  ALA62       0.0290
     68  N         19.2390   62.0050  136.9330 N.3    64  ASP64      -0.1225
     69  CA        19.3320   62.6510  138.2730 C.3    64  ASP64       0.1805
     70  C         19.8160   64.0930  138.1630 C.2    64  ASP64       0.2597
     71  O         19.5450   64.9180  139.0550 O.2    64  ASP64      -0.2718
     72  CB        20.1640   61.8590  139.2930 C.3    64  ASP64       0.1424
     73  CG        21.6100   61.6680  138.8830 C.2    64  ASP64       0.3668
     74  OD1       21.8540   60.9720  137.8610 O.co2  64  ASP64      -0.2456
     75  OD2       22.5250   62.1140  139.6190 O.co2  64  ASP64      -0.2456
     76  N         20.4750   64.3990  137.0360 N.am   65  TRP65      -0.1976
     77  CA        21.0360   65.7360  136.7800 C.3    65  TRP65       0.1640
     78  C         19.9800   66.7870  136.4820 C.2    65  TRP65       0.2290
     79  O         20.2780   67.9880  136.5230 O.2    65  TRP65      -0.2864
     80  CB        21.9910   65.7210  135.5840 C.3    65  TRP65       0.0576
     81  CG        23.1020   64.7260  135.6100 C.ar   65  TRP65       0.0006
     82  CD1       23.5200   63.9350  136.6750 C.ar   65  TRP65       0.0946
     83  CD2       24.0050   64.4550  134.5400 C.ar   65  TRP65       0.0152
     84  NE1       24.6020   63.1760  136.2920 N.ar   65  TRP65      -0.2442
     85  CE2       24.9140   63.4690  134.9920 C.ar   65  TRP65       0.0810
     86  CE3       24.1240   64.9350  133.2240 C.ar   65  TRP65       0.0012
     87  CZ2       25.9320   62.9700  134.1780 C.ar   65  TRP65       0.0191
     88  CZ3       25.1170   64.4250  132.4190 C.ar   65  TRP65       0.0001
     89  CH2       26.0050   63.4530  132.8860 C.ar   65  TRP65       0.0015
     90  N         17.9680   51.6600  133.1780 N.3   109  GLU109     -0.1245
     91  CA        18.9680   50.7360  133.6830 C.3   109  GLU109      0.1567
     92  C         18.8020   50.5560  135.1970 C.2   109  GLU109      0.2260
     93  O         18.2350   51.4190  135.8690 O.2   109  GLU109     -0.2867
     94  CB        20.3790   51.2890  133.4030 C.3   109  GLU109      0.0388
     95  CG        20.6690   52.6170  134.1800 C.3   109  GLU109      0.1160
     96  CD        21.8240   53.4340  133.5920 C.2   109  GLU109      0.3649
     97  OE1       22.3430   53.0750  132.5160 O.co2 109  GLU109     -0.2457
     98  OE2       22.2080   54.4170  134.2320 O.co2 109  GLU109     -0.2457
     99  N         30.8950   53.1820  147.3660 N.3   154  GLU154     -0.1245
    100  CA        30.1150   54.0970  146.5590 C.3   154  GLU154      0.1567
    101  C         28.6370   53.8570  146.7820 C.2   154  GLU154      0.2260
    102  O         28.1150   52.7710  146.5370 O.2   154  GLU154     -0.2867
    103  CB        30.4790   53.9520  145.0680 C.3   154  GLU154      0.0388
    104  CG        31.7760   54.6640  144.7130 C.3   154  GLU154      0.1160
    105  CD        31.9470   54.8220  143.2180 C.2   154  GLU154      0.3649
    106  OE1       32.0220   53.7870  142.5320 O.co2 154  GLU154     -0.2457
    107  OE2       32.0230   55.9730  142.7290 O.co2 154  GLU154     -0.2457
    108  N         25.9570   54.6900  145.2000 N.3   156  TYR156     -0.1227
    109  CA        25.1410   54.2170  144.0890 C.3   156  TYR156      0.1736
    110  C         25.0930   52.6670  144.0180 C.2   156  TYR156      0.2595
    111  O         24.0290   52.0720  143.7490 O.2   156  TYR156     -0.2718
    112  CB        25.6480   54.8240  142.7770 C.3   156  TYR156      0.0548
    113  CG        24.8780   54.3400  141.5690 C.ar  156  TYR156     -0.0200
    114  CD1       23.7160   54.9860  141.1460 C.ar  156  TYR156     -0.0009
    115  CD2       25.2600   53.1710  140.8830 C.ar  156  TYR156     -0.0009
    116  CE1       22.9920   54.5280  140.0520 C.ar  156  TYR156      0.0417
    117  CE2       24.5440   52.7260  139.7730 C.ar  156  TYR156      0.0417
    118  CZ        23.4010   53.3860  139.3740 C.ar  156  TYR156      0.1957
    119  OH        22.6370   52.9480  138.2770 O.3   156  TYR156     -0.2866
    120  N         26.2230   52.0290  144.3020 N.am  157  TYR157     -0.1976
    121  CA        26.3510   50.5630  144.2350 C.3   157  TYR157      0.1639
    122  C         25.8280   49.8130  145.4710 C.2   157  TYR157      0.2290
    123  O         25.4960   48.6440  145.3980 O.2   157  TYR157     -0.2864
    124  CB        27.8010   50.1940  143.9420 C.3   157  TYR157      0.0560
    125  CG        28.1420   50.5750  142.5070 C.ar  157  TYR157     -0.0198
    126  CD1       28.6940   51.8150  142.2020 C.ar  157  TYR157     -0.0009
    127  CD2       27.8580   49.7100  141.4550 C.ar  157  TYR157     -0.0009
    128  CE1       28.9650   52.1780  140.8980 C.ar  157  TYR157      0.0417
    129  CE2       28.1380   50.0820  140.1340 C.ar  157  TYR157      0.0417
    130  CZ        28.6990   51.3140  139.8730 C.ar  157  TYR157      0.1957
    131  OH        28.9590   51.7110  138.5610 O.3   157  TYR157     -0.2866
    132  N         35.0960   50.7940  141.0350 N.3   211  TYR211     -0.1241
    133  CA        34.5090   50.4640  139.7390 C.3   211  TYR211      0.1605
    134  C         35.5290   49.8180  138.7850 C.2   211  TYR211      0.2264
    135  O         35.2640   48.7870  138.1530 O.2   211  TYR211     -0.2867
    136  CB        33.8990   51.6820  139.0420 C.3   211  TYR211      0.0534
    137  CG        33.1400   51.2190  137.8300 C.ar  211  TYR211     -0.0201
    138  CD1       31.8540   50.7130  137.9650 C.ar  211  TYR211     -0.0009
    139  CD2       33.7440   51.1640  136.5700 C.ar  211  TYR211     -0.0009
    140  CE1       31.1650   50.2130  136.8700 C.ar  211  TYR211      0.0417
    141  CE2       33.0610   50.6720  135.4750 C.ar  211  TYR211      0.0417
    142  CZ        31.7640   50.2020  135.6340 C.ar  211  TYR211      0.1957
    143  OH        31.0760   49.6930  134.5450 O.3   211  TYR211     -0.2866
    144  N         25.4360   49.1250  131.0840 N.3   231  TRP231     -0.1241
    145  CA        26.4870   49.8730  130.3730 C.3   231  TRP231      0.1605
    146  C         27.7740   49.0880  130.2070 C.2   231  TRP231      0.2264
    147  O         28.5910   49.4030  129.3330 O.2   231  TRP231     -0.2867
    148  CB        26.8160   51.2010  131.0930 C.3   231  TRP231      0.0550
    149  CG        27.1800   51.0220  132.5280 C.ar  231  TRP231      0.0003
    150  CD1       28.3840   50.6290  133.0190 C.ar  231  TRP231      0.0946
    151  CD2       26.3070   51.1640  133.6650 C.ar  231  TRP231      0.0152
    152  NE1       28.3330   50.5430  134.3970 N.ar  231  TRP231     -0.2442
    153  CE2       27.0640   50.8520  134.8130 C.ar  231  TRP231      0.0810
    154  CE3       24.9710   51.5280  133.8160 C.ar  231  TRP231      0.0012
    155  CZ2       26.5280   50.9250  136.1110 C.ar  231  TRP231      0.0191
    156  CZ3       24.4440   51.5950  135.0810 C.ar  231  TRP231      0.0001
    157  CH2       25.2130   51.2780  136.2100 C.ar  231  TRP231      0.0015
    158  N         18.9190   57.2200  131.0210 N.3   264  GLN264     -0.1245
    159  CA        19.9670   57.9190  130.2700 C.3   264  GLN264      0.1566
    160  C         19.2860   58.6130  129.1150 C.2   264  GLN264      0.2260
    161  O         18.3830   58.0620  128.4850 O.2   264  GLN264     -0.2867
    162  CB        21.0250   56.9150  129.7520 C.3   264  GLN264      0.0367
    163  CG        21.8080   56.1870  130.8360 C.3   264  GLN264      0.0905
    164  CD        22.8440   57.0740  131.5120 C.2   264  GLN264      0.2608
    165  OE1       23.4160   57.9740  130.8880 O.2   264  GLN264     -0.2717
    166  NE2       23.0690   56.8410  132.8010 N.am  264  GLN264     -0.0878
    167  N         21.3000   48.7760  126.9390 N.3   301  ARG301     -0.1245
    168  CA        20.7320   48.8440  128.2890 C.3   301  ARG301      0.1563
    169  C         19.2640   48.3960  128.1620 C.2   301  ARG301      0.2260
    170  O         19.0340   47.3720  127.5180 O.2   301  ARG301     -0.2867
    171  CB        20.9360   50.2470  128.8610 C.3   301  ARG301      0.0307
    172  CG        22.3860   50.6910  128.7070 C.3   301  ARG301      0.0489
    173  CD        22.7170   51.9960  129.4200 C.3   301  ARG301      0.2205
    174  NE        23.9820   52.5390  128.9320 N.pl3 301  ARG301     -0.0865
    175  CZ        24.6900   53.4640  129.5550 C.cat 301  ARG301      0.5346
    176  NH1       24.3020   53.9500  130.7200 N.pl3 301  ARG301      0.1354
    177  NH2       25.8190   53.9040  129.0260 N.pl3 301  ARG301      0.1354
    178  N         16.1420   57.1910  140.6530 N.3   331  MET331     -0.1245
    179  CA        16.8950   58.2270  141.3200 C.3   331  MET331      0.1570
    180  C         16.0530   59.4970  141.3870 C.2   331  MET331      0.2261
    181  O         15.3670   59.8470  140.4360 O.2   331  MET331     -0.2867
    182  CB        18.1930   58.5480  140.5880 C.3   331  MET331      0.0387
    183  CG        19.2440   57.4400  140.6140 C.3   331  MET331      0.0595
    184  SD        20.7750   58.0040  139.8780 S.3   331  MET331     -0.1393
    185  CE        20.4140   57.9020  138.1230 C.3   331  MET331      0.0692
    186  N         25.2980   62.4000  147.1280 N.3   341  TRP341     -0.1241
    187  CA        26.2960   61.4090  146.7470 C.3   341  TRP341      0.1605
    188  C         27.5820   61.4370  147.5770 C.2   341  TRP341      0.2264
    189  O         27.9920   60.4040  148.1020 O.2   341  TRP341     -0.2867
    190  CB        26.6550   61.5390  145.2530 C.3   341  TRP341      0.0550
    191  CG        25.4620   61.5000  144.3440 C.ar  341  TRP341      0.0003
    192  CD1       24.9250   62.5520  143.6670 C.ar  341  TRP341      0.0946
    193  CD2       24.6360   60.3600  144.0300 C.ar  341  TRP341      0.0152
    194  NE1       23.8190   62.1470  142.9410 N.ar  341  TRP341     -0.2442
    195  CE2       23.6170   60.8090  143.1480 C.ar  341  TRP341      0.0810
    196  CE3       24.6560   59.0050  144.4000 C.ar  341  TRP341      0.0012
    197  CZ2       22.6380   59.9510  142.6130 C.ar  341  TRP341      0.0191
    198  CZ3       23.6730   58.1570  143.8750 C.ar  341  TRP341      0.0001
    199  CH2       22.6830   58.6360  142.9880 C.ar  341  TRP341      0.0015
    200  N         28.9700   58.5090  150.0300 N.3   345  ASN345     -0.1240
    201  CA        30.2280   57.8560  149.7040 C.3   345  ASN345      0.1653
    202  C         31.2140   57.9170  150.8740 C.2   345  ASN345      0.2266
    203  O         31.8590   56.9280  151.2100 O.2   345  ASN345     -0.2867
    204  CB        30.8890   58.5070  148.4850 C.3   345  ASN345      0.1155
    205  CG        30.1250   58.2710  147.1800 C.2   345  ASN345      0.2627
    206  OD1       29.2360   57.3930  147.0760 O.2   345  ASN345     -0.2716
    207  ND2       30.4760   59.0660  146.1600 N.am  345  ASN345     -0.0877
@<TRIPOS>BOND
     1    28    27    2
     2    27    26    1
     3    26    29    1
     4    26    25    1
     5    19    18    2
     6    29    30    1
     7    10     9    2
     8    25    18   am
     9    18    17    1
    10    30    31    1
    11     9     8    1
    12     9    16   am
    13     4     3    2
    14    17    16    1
    15    17    20    1
    16     8    11    1
    17     8     7    1
    18    31    32    2
    19    31    33   am
    20    11    12    1
    21     3     7   am
    22     3     2    1
    23    20    21    1
    24   167   168    1
    25     1     2    1
    26    12    13    1
    27   170   169    2
    28     2     5    1
    29    22    21    1
    30    22    23    1
    31   169   168    1
    32     6     5    1
    33   168   171    1
    34   161   160    2
    35   172   171    1
    36   172   173    1
    37    13    14   ar
    38    13    15   ar
    39   174   173    1
    40   174   175    2
    41   177   175    1
    42    24    23    1
    43   160   159    1
    44   147   146    2
    45   175   176    1
    46   162   159    1
    47   162   163    1
    48   146   145    1
    49   159   158    1
    50   145   144    1
    51   145   148    1
    52   163   164    1
    53   165   164    2
    54   148   149    1
    55   164   166   am
    56    34    35    1
    57    88    89   ar
    58    88    86   ar
    59    35    38    1
    60    35    36    1
    61    97    96   ar
    62   149   150   ar
    63   149   151   ar
    64    40    42   ar
    65    40    39   ar
    66    38    39    1
    67    63    64    1
    68    89    87   ar
    69   150   152   ar
    70    90    91    1
    71    86    83   ar
    72    42    44   ar
    73    94    91    1
    74    94    95    1
    75    39    41   ar
    76    96    95    1
    77    96    98   ar
    78   151   154   ar
    79   151   153   ar
    80    91    92    1
    81    36    37    2
    82    36    45   am
    83    64    65    1
    84    64    67    1
    85   154   156   ar
    86    54    55    1
    87    87    85   ar
    88    65    66    2
    89   152   153   ar
    90    55    56    1
    91    55    58    1
    92    83    85   ar
    93    83    81   ar
    94   143   142    1
    95    45    46    1
    96    44    43   ar
    97    57    56    2
    98   153   155   ar
    99    41    43   ar
   100    85    84   ar
   101   156   157   ar
   102    52    51    2
   103    92    93    2
   104    53    51   am
   105   141   142   ar
   106   141   139   ar
   107    51    50    1
   108    80    81    1
   109    80    77    1
   110    81    82   ar
   111   142   140   ar
   112    58    59    1
   113    47    46    1
   114    47    48    2
   115    46    49    1
   116   155   157   ar
   117    59    60    1
   118    84    82   ar
   119    78    79    2
   120    78    77    1
   121    50    49    1
   122   139   137   ar
   123    77    76    1
   124   140   138   ar
   125    68    69    1
   126    76    70   am
   127    60    61    1
   128   137   138   ar
   129   137   136    1
   130    74    73   ar
   131   185   184    1
   132   135   134    2
   133    70    69    1
   134    70    71    2
   135    69    72    1
   136   119   118    1
   137    61    62    1
   138   131   130    1
   139   134   133    1
   140    73    72    1
   141    73    75   ar
   142   136   133    1
   143   118   117   ar
   144   118   116   ar
   145   133   132    1
   146   117   115   ar
   147   130   129   ar
   148   130   128   ar
   149   184   183    1
   150   116   114   ar
   151   129   127   ar
   152   181   180    2
   153   182   183    1
   154   182   179    1
   155   178   179    1
   156   115   113   ar
   157   128   126   ar
   158   114   113   ar
   159   179   180    1
   160   127   125   ar
   161   113   112    1
   162   126   125   ar
   163   125   124    1
   164   106   105   ar
   165   197   199   ar
   166   197   195   ar
   167   107   105   ar
   168   112   109    1
   169   194   195   ar
   170   194   192   ar
   171   199   198   ar
   172   195   193   ar
   173   105   104    1
   174   192   191   ar
   175   111   110    2
   176   198   196   ar
   177   124   121    1
   178   110   109    1
   179   110   120   am
   180   193   191   ar
   181   193   196   ar
   182   109   108    1
   183   121   120    1
   184   121   122    1
   185   191   190    1
   186   104   103    1
   187   103   100    1
   188   190   187    1
   189   123   122    2
   190   207   205   am
   191   102   101    2
   192   100   101    1
   193   100    99    1
   194   187   186    1
   195   187   188    1
   196   206   205    2
   197   205   204    1
   198   188   189    2
   199   204   201    1
   200   201   200    1
   201   201   202    1
   202   202   203    2
