@<TRIPOS>MOLECULE
tmp/2ghgA00.pdb
 194 185 0 0 0
SMALL
GASTEIGER

@<TRIPOS>ATOM
      1  N         -1.2370    4.2760  -29.2460 N.3    12  GLN12      -0.1245
      2  CA        -0.7690    3.4150  -28.1700 C.3    12  GLN12       0.1566
      3  C         -1.6740    3.4500  -26.9490 C.2    12  GLN12       0.2260
      4  O         -2.5400    4.3130  -26.8160 O.2    12  GLN12      -0.2867
      5  CB         0.6490    3.8020  -27.7350 C.3    12  GLN12       0.0367
      6  CG         0.7500    5.1780  -27.0870 C.3    12  GLN12       0.0905
      7  CD         1.8090    5.2420  -25.9910 C.2    12  GLN12       0.2608
      8  OE1        2.0630    6.3040  -25.4200 O.2    12  GLN12      -0.2717
      9  NE2        2.4230    4.1020  -25.6870 N.am   12  GLN12      -0.0878
     10  N         -2.3750    3.9280  -22.9690 N.3    14  LEU14      -0.1231
     11  CA        -1.8590    4.8020  -21.9270 C.3    14  LEU14       0.1693
     12  C         -1.6940    4.0230  -20.6310 C.2    14  LEU14       0.2593
     13  O         -0.9090    4.4010  -19.7610 O.2    14  LEU14      -0.2718
     14  CB        -2.8150    5.9760  -21.7230 C.3    14  LEU14       0.0284
     15  CG        -3.1570    6.7440  -23.0030 C.3    14  LEU14       0.0019
     16  CD1       -4.1050    7.8870  -22.6810 C.3    14  LEU14       0.0001
     17  CD2       -1.8770    7.2620  -23.6430 C.3    14  LEU14       0.0001
     18  N         -2.4380    2.9260  -20.5160 N.am   15  GLY15      -0.1942
     19  CA        -2.3660    2.0970  -19.3260 C.3    15  GLY15       0.2014
     20  C         -2.7310    0.6430  -19.5800 C.2    15  GLY15       0.2639
     21  O         -2.4140    0.0940  -20.6360 O.2    15  GLY15      -0.2714
     22  N         -3.3920    0.0260  -18.6010 N.am   16  GLU16      -0.1963
     23  CA        -3.8260   -1.3700  -18.6780 C.3    16  GLU16       0.1737
     24  C         -4.1660   -1.8790  -17.2770 C.2    16  GLU16       0.2656
     25  O         -3.3640   -1.7420  -16.3530 O.2    16  GLU16      -0.2711
     26  CB        -2.7290   -2.2610  -19.2920 C.3    16  GLU16       0.0429
     27  CG        -1.4460   -2.3910  -18.4600 C.3    16  GLU16       0.1163
     28  CD        -0.4750   -3.4280  -19.0230 C.2    16  GLU16       0.3649
     29  OE1       -0.8890   -4.5920  -19.2150 O.co2  16  GLU16      -0.2457
     30  OE2        0.7030   -3.0810  -19.2670 O.co2  16  GLU16      -0.2457
     31  N         -5.3500   -2.4610  -17.1130 N.am   17  GLY17      -0.1716
     32  CA        -5.7200   -2.9610  -15.8020 C.2    17  GLY17       0.1480
     33  C         -7.0880   -3.6020  -15.6760 C.2    17  GLY17       0.2820
     34  O         -7.7440   -3.9140  -16.6710 O.2    17  GLY17      -0.2669
     35  N         -7.5100   -3.8020  -14.4300 N.am   18  ALA18      -0.1929
     36  CA        -8.7980   -4.4110  -14.1240 C.3    18  ALA18       0.1731
     37  C         -9.9160   -3.3930  -14.2890 C.2    18  ALA18       0.2616
     38  O        -11.0820   -3.6800  -14.0200 O.2    18  ALA18      -0.2715
     39  CB        -8.7880   -4.9610  -12.6980 C.3    18  ALA18       0.0334
     40  N         -9.5470   -2.1940  -14.7200 N.am   19  TYR19      -0.1960
     41  CA       -10.5200   -1.1380  -14.9350 C.3    19  TYR19       0.1771
     42  C        -11.0100   -1.2050  -16.3750 C.2    19  TYR19       0.2620
     43  O        -12.2110   -1.1390  -16.6370 O.2    19  TYR19      -0.2715
     44  CB        -9.8890    0.2260  -14.6580 C.3    19  TYR19       0.0574
     45  CG       -10.4310    0.9100  -13.4230 C.ar   19  TYR19      -0.0198
     46  CD1      -11.7590    1.3130  -13.3600 C.ar   19  TYR19      -0.0009
     47  CD2       -9.6150    1.1630  -12.3270 C.ar   19  TYR19      -0.0009
     48  CE1      -12.2580    1.9510  -12.2420 C.ar   19  TYR19       0.0417
     49  CE2      -10.1040    1.7970  -11.2060 C.ar   19  TYR19       0.0417
     50  CZ       -11.4250    2.1910  -11.1680 C.ar   19  TYR19       0.1957
     51  OH       -11.9140    2.8340  -10.0550 O.3    19  TYR19      -0.2866
     52  N        -10.0720   -1.3470  -17.3050 N.am   20  GLY20      -0.1940
     53  CA       -10.4360   -1.4260  -18.7060 C.3    20  GLY20       0.2014
     54  C         -9.2520   -1.3070  -19.6450 C.2    20  GLY20       0.2639
     55  O         -8.3990   -2.1960  -19.7000 O.2    20  GLY20      -0.2714
     56  N         -9.1970   -0.2030  -20.3830 N.am   21  GLU21      -0.1963
     57  CA        -8.1240    0.0280  -21.3430 C.3    21  GLU21       0.1733
     58  C         -8.1810    1.4470  -21.9010 C.2    21  GLU21       0.2616
     59  O         -8.8500    1.7050  -22.9000 O.2    21  GLU21      -0.2715
     60  CB        -8.2330   -0.9830  -22.4900 C.3    21  GLU21       0.0429
     61  CG        -7.2800   -0.7400  -23.6490 C.3    21  GLU21       0.1163
     62  CD        -7.5270   -1.6830  -24.8140 C.2    21  GLU21       0.3649
     63  OE1       -8.6730   -1.7310  -25.3080 O.co2  21  GLU21      -0.2457
     64  OE2       -6.5770   -2.3730  -25.2390 O.co2  21  GLU21      -0.2457
     65  N         -7.4790    2.3680  -21.2540 N.am   22  VAL22      -0.1977
     66  CA        -7.4670    3.7450  -21.7170 C.3    22  VAL22       0.1596
     67  C         -6.4530    3.9190  -22.8390 C.2    22  VAL22       0.2287
     68  O         -5.2490    3.9930  -22.5960 O.2    22  VAL22      -0.2864
     69  CB        -7.1280    4.7190  -20.5750 C.3    22  VAL22       0.0276
     70  CG1       -6.9110    6.1190  -21.1300 C.3    22  VAL22       0.0022
     71  CG2       -8.2540    4.7250  -19.5570 C.3    22  VAL22       0.0022
     72  N         -7.6390   10.8530  -24.7270 N.3    35  ALA35      -0.1245
     73  CA        -7.5180    9.5420  -24.1030 C.3    35  ALA35       0.1562
     74  C         -8.9000    8.9060  -24.0530 C.2    35  ALA35       0.2260
     75  O         -9.8920    9.5900  -23.7960 O.2    35  ALA35      -0.2867
     76  CB        -6.9550    9.6880  -22.6970 C.3    35  ALA35       0.0290
     77  N        -11.1120    5.7460  -22.3550 N.3    37  LYS37      -0.1245
     78  CA       -11.2280    4.6400  -21.4150 C.3    37  LYS37       0.1561
     79  C        -12.2570    3.6690  -21.9740 C.2    37  LYS37       0.2260
     80  O        -13.3760    4.0620  -22.3010 O.2    37  LYS37      -0.2867
     81  CB       -11.6770    5.1500  -20.0450 C.3    37  LYS37       0.0271
     82  CG       -11.6530    4.1040  -18.9450 C.3    37  LYS37       0.0035
     83  CD       -11.9970    4.7200  -17.5950 C.3    37  LYS37       0.0206
     84  CE       -11.9330    3.6890  -16.4760 C.3    37  LYS37       0.1093
     85  NZ       -12.3040    4.2590  -15.1500 N.3    37  LYS37      -0.1314
     86  N        -19.5370    7.2080  -12.2660 N.3    54  GLU54      -0.1245
     87  CA       -18.3430    7.8670  -12.7630 C.3    54  GLU54       0.1567
     88  C        -18.7670    8.7830  -13.8960 C.2    54  GLU54       0.2260
     89  O        -18.5180    9.9880  -13.8680 O.2    54  GLU54      -0.2867
     90  CB       -17.3280    6.8460  -13.2790 C.3    54  GLU54       0.0388
     91  CG       -16.0390    7.4870  -13.7700 C.3    54  GLU54       0.1160
     92  CD       -15.0170    6.4820  -14.2470 C.2    54  GLU54       0.3649
     93  OE1      -13.9150    6.9030  -14.6490 O.co2  54  GLU54      -0.2457
     94  OE2      -15.3130    5.2720  -14.2260 O.co2  54  GLU54      -0.2457
     95  N         -9.0770   16.2550  -15.0050 N.3    67  VAL67      -0.1245
     96  CA        -9.2420   15.6060  -16.3000 C.3    67  VAL67       0.1561
     97  C        -10.5040   16.1000  -16.9960 C.2    67  VAL67       0.2260
     98  O        -11.6140   15.7290  -16.6170 O.2    67  VAL67      -0.2867
     99  CB        -9.3200   14.0710  -16.1480 C.3    67  VAL67       0.0252
    100  CG1       -9.9340   13.4510  -17.3850 C.3    67  VAL67       0.0019
    101  CG2       -7.9330   13.5130  -15.9420 C.3    67  VAL67       0.0019
    102  N        -11.7120   11.5380  -22.3780 N.3    83  LEU83      -0.1231
    103  CA       -11.1950   12.4670  -21.3870 C.3    83  LEU83       0.1693
    104  C         -9.9040   13.1360  -21.8570 C.2    83  LEU83       0.2592
    105  O         -9.1080   12.5310  -22.5760 O.2    83  LEU83      -0.2718
    106  CB       -10.9610   11.7110  -20.0810 C.3    83  LEU83       0.0284
    107  CG       -12.1460   10.8310  -19.6590 C.3    83  LEU83       0.0019
    108  CD1      -11.7700    9.9780  -18.4620 C.3    83  LEU83       0.0001
    109  CD2      -13.3440   11.7100  -19.3450 C.3    83  LEU83       0.0001
    110  N         -9.7130   14.3880  -21.4440 N.am   84  GLU84      -0.1966
    111  CA        -8.5390   15.1780  -21.8130 C.3    84  GLU84       0.1733
    112  C         -7.2140   14.4270  -21.7280 C.2    84  GLU84       0.2616
    113  O         -6.8050   14.0020  -20.6480 O.2    84  GLU84      -0.2715
    114  CB        -8.4500   16.4210  -20.9290 C.3    84  GLU84       0.0429
    115  CG        -7.1610   17.2000  -21.1190 C.3    84  GLU84       0.1163
    116  CD        -6.9340   18.2380  -20.0410 C.2    84  GLU84       0.3649
    117  OE1       -7.6640   19.2500  -20.0050 O.co2  84  GLU84      -0.2457
    118  OE2       -6.0190   18.0320  -19.2210 O.co2  84  GLU84      -0.2457
    119  N         -6.5360   14.2840  -22.8630 N.am   85  TYR85      -0.1960
    120  CA        -5.2500   13.5940  -22.8980 C.3    85  TYR85       0.1771
    121  C         -4.2060   14.3820  -22.1090 C.2    85  TYR85       0.2620
    122  O         -4.4270   15.5440  -21.7570 O.2    85  TYR85      -0.2715
    123  CB        -4.7910   13.4050  -24.3550 C.3    85  TYR85       0.0574
    124  CG        -3.3670   12.8970  -24.5200 C.ar   85  TYR85      -0.0198
    125  CD1       -2.9530   11.7080  -23.9360 C.ar   85  TYR85      -0.0009
    126  CD2       -2.4390   13.6120  -25.2640 C.ar   85  TYR85      -0.0009
    127  CE1       -1.6520   11.2500  -24.0900 C.ar   85  TYR85       0.0417
    128  CE2       -1.1390   13.1620  -25.4210 C.ar   85  TYR85       0.0417
    129  CZ        -0.7490   11.9820  -24.8340 C.ar   85  TYR85       0.1957
    130  OH         0.5470   11.5360  -24.9940 O.3    85  TYR85      -0.2866
    131  N         -3.0770   13.7360  -21.8300 N.am   86  CYS86      -0.1954
    132  CA        -1.9810   14.3480  -21.0870 C.3    86  CYS86       0.1843
    133  C         -0.6500   13.7860  -21.5720 C.2    86  CYS86       0.2626
    134  O         -0.3810   12.5950  -21.4070 O.2    86  CYS86      -0.2714
    135  CB        -2.1280   14.0610  -19.5900 C.3    86  CYS86       0.0997
    136  SG        -3.5300   14.8730  -18.7940 S.3    86  CYS86      -0.0797
    137  N          0.1790   14.6380  -22.1680 N.am   87  SER87      -0.1950
    138  CA         1.4820   14.2000  -22.6610 C.3    87  SER87       0.1924
    139  C          2.5120   14.2390  -21.5330 C.2    87  SER87       0.2314
    140  O          3.6340   13.7560  -21.6810 O.2    87  SER87      -0.2863
    141  CB         1.9440   15.0870  -23.8230 C.3    87  SER87       0.2116
    142  OG         2.0900   16.4410  -23.4250 O.3    87  SER87      -0.2180
    143  N          2.3580   12.6050  -18.8960 N.3    89  GLY89      -0.1210
    144  CA         2.2050   11.3940  -18.1110 C.3    89  GLY89       0.1956
    145  C          1.6650   11.6100  -16.7100 C.2    89  GLY89       0.2611
    146  O          0.9280   12.5660  -16.4570 O.2    89  GLY89      -0.2717
    147  N          2.0390   10.7150  -15.8000 N.am   90  GLU90      -0.1979
    148  CA         1.6010   10.7930  -14.4110 C.3    90  GLU90       0.1602
    149  C          2.6850   11.4790  -13.5860 C.2    90  GLU90       0.2287
    150  O          3.8270   11.5960  -14.0280 O.2    90  GLU90      -0.2864
    151  CB         1.3600    9.3830  -13.8510 C.3    90  GLU90       0.0415
    152  CG         1.0510    8.3130  -14.9070 C.3    90  GLU90       0.1163
    153  CD         0.8030    6.9290  -14.3120 C.2    90  GLU90       0.3649
    154  OE1        1.5910    6.4940  -13.4440 O.co2  90  GLU90      -0.2457
    155  OE2       -0.1750    6.2710  -14.7250 O.co2  90  GLU90      -0.2457
    156  N          0.0100    8.2410   -9.3950 N.3   133  GLU133     -0.1231
    157  CA        -0.5090    7.6030  -10.5920 C.3   133  GLU133      0.1699
    158  C         -1.9170    8.0570  -10.9490 C.2   133  GLU133      0.2592
    159  O         -2.5740    7.4470  -11.7850 O.2   133  GLU133     -0.2718
    160  CB        -0.4700    6.0800  -10.4540 C.3   133  GLU133      0.0402
    161  CG        -0.9270    5.5380   -9.1160 C.3   133  GLU133      0.1161
    162  CD         0.1480    5.6330   -8.0520 C.2   133  GLU133      0.3649
    163  OE1        0.4300    6.7530   -7.5790 O.co2 133  GLU133     -0.2457
    164  OE2        0.7200    4.5830   -7.6920 O.co2 133  GLU133     -0.2457
    165  N         -2.3780    9.1250  -10.3090 N.am  134  ASN134     -0.1974
    166  CA        -3.6960    9.6770  -10.5950 C.3   134  ASN134      0.1688
    167  C         -3.5490   11.1420  -10.9590 C.2   134  ASN134      0.2292
    168  O         -4.2890   11.6650  -11.7950 O.2   134  ASN134     -0.2864
    169  CB        -4.6180    9.5490   -9.3880 C.3   134  ASN134      0.1181
    170  CG        -5.0370    8.1290   -9.1390 C.2   134  ASN134      0.2629
    171  OD1       -5.8440    7.8510   -8.2490 O.2   134  ASN134     -0.2716
    172  ND2       -4.4940    7.2120   -9.9270 N.am  134  ASN134     -0.0877
    173  N         -2.1270   13.4740  -12.9740 N.3   136  LEU136     -0.1245
    174  CA        -1.4340   13.5750  -14.2530 C.3   136  LEU136      0.1561
    175  C         -0.7900   14.9200  -14.5030 C.2   136  LEU136      0.2260
    176  O         -0.8150   15.8100  -13.6590 O.2   136  LEU136     -0.2867
    177  CB        -2.3890   13.2940  -15.4050 C.3   136  LEU136      0.0270
    178  CG        -3.4000   12.1690  -15.2180 C.3   136  LEU136      0.0019
    179  CD1       -4.0510   11.9060  -16.5540 C.3   136  LEU136      0.0001
    180  CD2       -2.7330   10.9140  -14.6960 C.3   136  LEU136      0.0001
    181  N         -7.2290   12.9120  -11.7960 N.3   146  SER146     -0.1202
    182  CA        -7.8840   11.9620  -12.6880 C.3   146  SER146      0.2020
    183  C         -8.4260   10.7150  -11.9920 C.2   146  SER146      0.2618
    184  O         -8.1440   10.4780  -10.8190 O.2   146  SER146     -0.2717
    185  CB        -6.9080   11.5290  -13.7740 C.3   146  SER146      0.2103
    186  OG        -7.5570   10.7060  -14.7260 O.3   146  SER146     -0.2182
    187  N         -9.1990    9.9250  -12.7410 N.am  147  ASP147     -0.1973
    188  CA        -9.7980    8.6790  -12.2590 C.3   147  ASP147      0.1709
    189  C        -10.9150    8.8660  -11.2340 C.2   147  ASP147      0.2293
    190  O        -10.7420    8.5600  -10.0530 O.2   147  ASP147     -0.2864
    191  CB        -8.7240    7.7690  -11.6570 C.3   147  ASP147      0.1436
    192  CG        -9.2930    6.4470  -11.1520 C.2   147  ASP147      0.3671
    193  OD1       -8.5460    5.6810  -10.5070 O.co2 147  ASP147     -0.2456
    194  OD2      -10.4860    6.1690  -11.3990 O.co2 147  ASP147     -0.2456
@<TRIPOS>BOND
     1     1     2    1
     2     2     5    1
     3     2     3    1
     4     5     6    1
     5     6     7    1
     6     3     4    2
     7     7     9   am
     8     7     8    2
     9   128   126   ar
    10   128   129   ar
    11    63    62   ar
    12   126   124   ar
    13    64    62   ar
    14   130   129    1
    15   129   127   ar
    16    62    61    1
    17    72    73    1
    18   124   123    1
    19   124   125   ar
    20   123   120    1
    21    73    74    1
    22    73    76    1
    23   127   125   ar
    24    74    75    2
    25   141   142    1
    26   141   138    1
    27    61    60    1
    28    17    15    1
    29    15    16    1
    30    15    14    1
    31    10    11    1
    32    59    58    2
    33   120   119    1
    34   120   121    1
    35   119   112   am
    36    67    68    2
    37    67    66    1
    38   138   137    1
    39   138   139    1
    40   105   104    2
    41    60    57    1
    42   102   103    1
    43    77    78    1
    44    80    79    2
    45   137   133   am
    46   121   131   am
    47   121   122    2
    48    79    78    1
    49    11    14    1
    50    11    12    1
    51    58    57    1
    52    58    65   am
    53   104   110   am
    54   104   103    1
    55   131   132    1
    56   111   112    1
    57   111   110    1
    58   111   114    1
    59   112   113    2
    60    66    65    1
    61    66    69    1
    62   140   139    2
    63   133   134    2
    64   133   132    1
    65    78    81    1
    66   103   106    1
    67    57    56    1
    68    70    69    1
    69   115   114    1
    70   115   116    1
    71   132   135    1
    72    21    20    2
    73    12    18   am
    74    12    13    2
    75    69    71    1
    76    18    19    1
    77    56    54   am
    78   106   107    1
    79    81    82    1
    80   116   117   ar
    81   116   118   ar
    82    55    54    2
    83   107   109    1
    84   107   108    1
    85    54    53    1
    86   135   136    1
    87    20    19    1
    88    20    22   am
    89    26    23    1
    90    26    27    1
    91    30    28   ar
    92    29    28   ar
    93    28    27    1
    94    82    83    1
    95   143   144    1
    96    53    52    1
    97    23    22    1
    98    23    24    1
    99   144   145    1
   100    83    84    1
   101   100    99    1
   102    52    42   am
   103    24    31    1
   104    24    25    2
   105    31    32    2
   106    97    98    2
   107    97    96    1
   108   145   146    2
   109   145   147   am
   110    34    33    2
   111    43    42    2
   112   179   178    1
   113    84    85    1
   114    42    41    1
   115    96    99    1
   116    96    95    1
   117    99   101    1
   118    32    33    1
   119   147   148    1
   120    33    35   am
   121   177   178    1
   122   177   174    1
   123   178   180    1
   124    41    40    1
   125    41    44    1
   126   152   153    1
   127   152   151    1
   128   186   185    1
   129   155   153   ar
   130    40    37   am
   131    44    45    1
   132    93    92   ar
   133   175   174    1
   134   175   176    2
   135    35    36    1
   136   148   151    1
   137   148   149    1
   138   153   154   ar
   139    37    36    1
   140    37    38    2
   141   174   173    1
   142    92    94   ar
   143    92    91    1
   144    36    39    1
   145   150   149    2
   146    88    89    2
   147    88    87    1
   148   185   182    1
   149    91    90    1
   150    45    46   ar
   151    45    47   ar
   152    46    48   ar
   153    90    87    1
   154    87    86    1
   155   187   188    1
   156   187   183   am
   157   182   183    1
   158   182   181    1
   159    47    49   ar
   160   188   191    1
   161   188   189    1
   162    48    50   ar
   163   183   184    2
   164   168   167    2
   165   159   158    2
   166   191   192    1
   167   194   192   ar
   168   189   190    2
   169    49    50   ar
   170    50    51    1
   171   192   193   ar
   172   167   166    1
   173   158   157    1
   174   158   165   am
   175   166   165    1
   176   166   169    1
   177   157   160    1
   178   157   156    1
   179   160   161    1
   180   172   170   am
   181   169   170    1
   182   170   171    2
   183   161   162    1
   184   162   164   ar
   185   162   163   ar
