@<TRIPOS>MOLECULE
tmp/2ghlA00.pdb
 187 177 0 0 0
SMALL
GASTEIGER

@<TRIPOS>ATOM
      1  N         -8.4630    1.2210   28.0270 N.3    26  VAL26      -0.1231
      2  CA        -7.1070    0.6960   28.1270 C.3    26  VAL26       0.1692
      3  C         -6.0500    1.7890   27.9210 C.2    26  VAL26       0.2593
      4  O         -4.8750    1.5980   28.2150 O.2    26  VAL26      -0.2718
      5  CB        -6.9950   -0.5460   27.1680 C.3    26  VAL26       0.0266
      6  CG1       -5.6540   -0.6660   26.5020 C.3    26  VAL26       0.0020
      7  CG2       -7.3700   -1.8350   27.9180 C.3    26  VAL26       0.0020
      8  N         -6.4630    2.9610   27.4620 N.am   27  GLY27      -0.1942
      9  CA        -5.5130    4.0380   27.2560 C.3    27  GLY27       0.2014
     10  C         -6.1000    5.1170   26.4020 C.2    27  GLY27       0.2639
     11  O         -7.1640    4.9410   25.8200 O.2    27  GLY27      -0.2714
     12  N         -5.4120    6.2430   26.3190 N.am   28  SER28      -0.1949
     13  CA        -5.9890    7.3910   25.6320 C.3    28  SER28       0.1924
     14  C         -5.0160    8.4420   25.1510 C.2    28  SER28       0.2314
     15  O         -3.8590    8.4790   25.5420 O.2    28  SER28      -0.2863
     16  CB        -7.0290    8.0790   26.5160 C.3    28  SER28       0.2116
     17  OG        -7.8600    8.9050   25.7040 O.3    28  SER28      -0.2180
     18  N         -5.2200   11.7730   20.1230 N.3    31  TYR31      -0.1241
     19  CA        -5.3900   11.0670   18.8330 C.3    31  TYR31       0.1605
     20  C         -6.5840   10.1260   18.8310 C.2    31  TYR31       0.2264
     21  O         -7.2140    9.9100   17.7840 O.2    31  TYR31      -0.2867
     22  CB        -4.1050   10.2960   18.4470 C.3    31  TYR31       0.0534
     23  CG        -3.8100    9.0550   19.2880 C.ar   31  TYR31      -0.0201
     24  CD1       -3.9580    7.7670   18.7490 C.ar   31  TYR31      -0.0009
     25  CD2       -3.3620    9.1580   20.6240 C.ar   31  TYR31      -0.0009
     26  CE1       -3.6850    6.6320   19.5110 C.ar   31  TYR31       0.0417
     27  CE2       -3.1030    8.0430   21.3730 C.ar   31  TYR31       0.0417
     28  CZ        -3.2690    6.7820   20.8100 C.ar   31  TYR31       0.1957
     29  OH        -3.0120    5.6490   21.5370 O.3    31  TYR31      -0.2866
     30  N         -8.7610    3.8610   23.4080 N.3    34  VAL34      -0.1245
     31  CA        -8.6960    2.4630   23.0890 C.3    34  VAL34       0.1561
     32  C         -9.4280    1.6480   24.1650 C.2    34  VAL34       0.2260
     33  O         -9.4130    1.9860   25.3450 O.2    34  VAL34      -0.2867
     34  CB        -7.2100    2.0040   22.9500 C.3    34  VAL34       0.0252
     35  CG1       -7.1050    0.5150   22.6130 C.3    34  VAL34       0.0019
     36  CG2       -6.5300    2.8370   21.8720 C.3    34  VAL34       0.0019
     37  N         -8.3140   -5.0150   20.2580 N.3    47  ALA47      -0.1245
     38  CA        -8.2220   -3.6180   20.6560 C.3    47  ALA47       0.1562
     39  C         -8.9430   -2.7730   19.6040 C.2    47  ALA47       0.2260
     40  O         -8.7000   -2.9350   18.4040 O.2    47  ALA47      -0.2867
     41  CB        -6.7650   -3.2040   20.7780 C.3    47  ALA47       0.0290
     42  N         -9.6330    1.1230   18.5820 N.3    49  LYS49      -0.1245
     43  CA        -9.2810    2.5290   18.7640 C.3    49  LYS49       0.1561
     44  C        -10.2780    3.4420   18.0480 C.2    49  LYS49       0.2260
     45  O        -10.5370    3.2960   16.8360 O.2    49  LYS49      -0.2867
     46  CB        -7.8790    2.8110   18.2670 C.3    49  LYS49       0.0271
     47  CG        -7.4450    4.2670   18.4120 C.3    49  LYS49       0.0035
     48  CD        -5.9860    4.4850   18.1470 C.3    49  LYS49       0.0206
     49  CE        -5.6120    4.6500   16.6610 C.3    49  LYS49       0.1093
     50  NZ        -4.4010    5.6020   16.4670 N.3    49  LYS49      -0.1314
     51  N         -3.3460    7.3970    8.5840 N.3    67  GLU67      -0.1245
     52  CA        -3.3550    6.2530    9.4800 C.3    67  GLU67       0.1567
     53  C         -4.0940    5.0680    8.8360 C.2    67  GLU67       0.2260
     54  O         -3.5890    3.9530    8.8680 O.2    67  GLU67      -0.2867
     55  CB        -3.9680    6.5550   10.8850 C.3    67  GLU67       0.0388
     56  CG        -3.7480    5.3390   11.7790 C.3    67  GLU67       0.1160
     57  CD        -3.9920    5.5540   13.2500 C.2    67  GLU67       0.3649
     58  OE1       -4.3210    6.7250   13.6570 O.co2  67  GLU67      -0.2457
     59  OE2       -3.8930    4.5140   13.9800 O.co2  67  GLU67      -0.2457
     60  N         -2.4800    1.4740    7.6840 N.3    71  LEU71      -0.1245
     61  CA        -2.9510    0.2740    8.3390 C.3    71  LEU71       0.1561
     62  C         -3.5670   -0.6980    7.3680 C.2    71  LEU71       0.2260
     63  O         -3.4200   -1.8750    7.5450 O.2    71  LEU71      -0.2867
     64  CB        -3.9360    0.5970    9.4400 C.3    71  LEU71       0.0270
     65  CG        -3.3250    1.0030   10.7800 C.3    71  LEU71       0.0019
     66  CD1       -4.4350    1.6480   11.6000 C.3    71  LEU71       0.0001
     67  CD2       -2.7740   -0.2130   11.5030 C.3    71  LEU71       0.0001
     68  N          1.6000   -4.0350   13.5840 N.3    80  ILE80      -0.1231
     69  CA         0.1480   -3.8290   13.7630 C.3    80  ILE80       0.1692
     70  C         -0.5450   -3.6270   12.4640 C.2    80  ILE80       0.2593
     71  O         -0.1830   -2.7870   11.6710 O.2    80  ILE80      -0.2718
     72  CB        -0.1800   -2.6740   14.7480 C.3    80  ILE80       0.0266
     73  CG1       -0.2390   -3.2440   16.1450 C.3    80  ILE80       0.0019
     74  CG2       -1.5020   -2.0490   14.5230 C.3    80  ILE80       0.0020
     75  CD1        1.0910   -3.2480   16.7370 C.3    80  ILE80       0.0001
     76  N         -1.5540   -4.4480   12.2560 N.am   81  GLY81      -0.1942
     77  CA        -2.3660   -4.4270   11.0660 C.3    81  GLY81       0.2014
     78  C         -3.8300   -4.2610   11.4440 C.2    81  GLY81       0.2638
     79  O         -4.1610   -4.0760   12.6290 O.2    81  GLY81      -0.2714
     80  N         -4.6810   -4.3830   10.4400 N.am   82  LEU82      -0.1977
     81  CA        -6.0940   -4.0280   10.5100 C.3    82  LEU82       0.1596
     82  C         -6.9510   -5.3000   10.4210 C.2    82  LEU82       0.2287
     83  O         -7.1040   -5.8640    9.3690 O.2    82  LEU82      -0.2864
     84  CB        -6.4480   -3.1030    9.3140 C.3    82  LEU82       0.0297
     85  CG        -7.1180   -1.7480    9.4260 C.3    82  LEU82       0.0022
     86  CD1       -7.9110   -1.3980    8.1850 C.3    82  LEU82       0.0001
     87  CD2       -7.9780   -1.6060   10.7180 C.3    82  LEU82       0.0001
     88  N        -10.8990    1.7160   14.6390 N.3   100  LEU100     -0.1231
     89  CA        -9.9470    0.7620   14.1070 C.3   100  LEU100      0.1693
     90  C         -9.7680   -0.4080   15.0970 C.2   100  LEU100      0.2592
     91  O         -9.7030   -0.1930   16.2940 O.2   100  LEU100     -0.2718
     92  CB        -8.6140    1.4520   13.8660 C.3   100  LEU100      0.0284
     93  CG        -8.6990    2.7390   13.0680 C.3   100  LEU100      0.0019
     94  CD1       -7.5130    3.6280   13.3960 C.3   100  LEU100      0.0001
     95  CD2       -8.8260    2.4560   11.5710 C.3   100  LEU100      0.0001
     96  N         -9.6410   -1.6100   14.5620 N.am  101  VAL101     -0.1966
     97  CA        -9.5490   -2.8410   15.3480 C.3   101  VAL101      0.1727
     98  C         -8.3520   -3.6590   14.9000 C.2   101  VAL101      0.2617
     99  O         -8.0950   -3.8150   13.6860 O.2   101  VAL101     -0.2715
    100  CB       -10.7800   -3.7520   15.1620 C.3   101  VAL101      0.0290
    101  CG1      -10.7080   -4.9750   16.1100 C.3   101  VAL101      0.0023
    102  CG2      -12.0790   -2.9480   15.4210 C.3   101  VAL101      0.0023
    103  N         -7.6330   -4.1770   15.8730 N.am  102  THR102     -0.1937
    104  CA        -6.4960   -5.0690   15.5950 C.3   102  THR102      0.2028
    105  C         -6.4030   -6.0780   16.7420 C.2   102  THR102      0.2642
    106  O         -7.1360   -5.9430   17.7130 O.2   102  THR102     -0.2714
    107  CB        -5.1540   -4.2260   15.4260 C.3   102  THR102      0.1808
    108  OG1       -4.0360   -5.0550   14.9880 O.3   102  THR102     -0.2208
    109  CG2       -4.7490   -3.6410   16.7140 C.3   102  THR102      0.0379
    110  N         -5.4730   -7.0360   16.6810 N.am  103  HIS103     -0.1959
    111  CA        -5.2600   -7.9550   17.8200 C.3   103  HIS103      0.1787
    112  C         -4.7720   -7.2450   19.0690 C.2   103  HIS103      0.2620
    113  O         -3.9280   -6.3300   19.0040 O.2   103  HIS103     -0.2715
    114  CB        -4.2440   -9.0700   17.5150 C.3   103  HIS103      0.0785
    115  CG        -4.4860   -9.8090   16.2470 C.ar  103  HIS103      0.0821
    116  ND1       -3.7070   -9.6150   15.1180 N.ar  103  HIS103     -0.2267
    117  CD2       -5.4000  -10.7480   15.9190 C.ar  103  HIS103      0.1154
    118  CE1       -4.1350  -10.4090   14.1520 C.ar  103  HIS103      0.1986
    119  NE2       -5.1620  -11.1050   14.6110 N.ar  103  HIS103     -0.2212
    120  N         -5.2720   -7.6760   20.2280 N.am  104  LEU104     -0.1963
    121  CA        -4.8860   -7.0450   21.4900 C.3   104  LEU104      0.1728
    122  C         -3.5620   -7.6300   21.9660 C.2   104  LEU104      0.2616
    123  O         -3.3290   -8.8310   21.8760 O.2   104  LEU104     -0.2715
    124  CB        -5.9570   -7.2350   22.5620 C.3   104  LEU104      0.0311
    125  CG        -5.6560   -6.6610   23.9500 C.3   104  LEU104      0.0022
    126  CD1       -5.8450   -5.1390   23.9710 C.3   104  LEU104      0.0001
    127  CD2       -6.5230   -7.3590   25.0460 C.3   104  LEU104      0.0001
    128  N         -2.7160   -6.7340   22.4690 N.am  105  MET105     -0.1963
    129  CA        -1.3800   -7.0210   22.8660 C.3   105  MET105      0.1736
    130  C         -1.3040   -6.6080   24.3300 C.2   105  MET105      0.2617
    131  O         -1.7770   -5.5200   24.7010 O.2   105  MET105     -0.2715
    132  CB        -0.3870   -6.1800   22.0310 C.3   105  MET105      0.0427
    133  CG        -0.4100   -6.4200   20.5250 C.3   105  MET105      0.0599
    134  SD         0.0400   -8.0540   20.0800 S.3   105  MET105     -0.1393
    135  CE         1.7630   -8.1750   20.5260 C.3   105  MET105      0.0692
    136  N         -0.6480   -7.4500   25.1260 N.am  106  GLY106     -0.1940
    137  CA        -0.6900   -7.3700   26.5810 C.3   106  GLY106      0.2014
    138  C         -0.0510   -6.1580   27.2000 C.2   106  GLY106      0.2639
    139  O         -0.5360   -5.6450   28.1980 O.2   106  GLY106     -0.2714
    140  N          1.0480   -5.6990   26.6080 N.am  107  ALA107     -0.1963
    141  CA         1.8730   -4.6780   27.2060 C.3   107  ALA107      0.1728
    142  C          2.8220   -4.0410   26.1590 C.2   107  ALA107      0.2616
    143  O          2.9040   -4.4960   25.0400 O.2   107  ALA107     -0.2715
    144  CB         2.6730   -5.2740   28.3510 C.3   107  ALA107      0.0334
    145  N          3.4850   -2.9600   26.5310 N.am  108  ASP108     -0.1971
    146  CA         4.5290   -2.3650   25.7010 C.3   108  ASP108      0.1709
    147  C          5.8540   -2.4680   26.4600 C.2   108  ASP108      0.2293
    148  O          5.8800   -2.9030   27.6140 O.2   108  ASP108     -0.2864
    149  CB         4.1910   -0.9170   25.3720 C.3   108  ASP108      0.1436
    150  CG         4.2620   -0.0210   26.5780 C.2   108  ASP108      0.3671
    151  OD1        3.5210    0.9830   26.6290 O.co2 108  ASP108     -0.2456
    152  OD2        5.0420   -0.2380   27.5260 O.co2 108  ASP108     -0.2456
    153  N          7.4960    2.5050   24.1830 N.3   146  SER146     -0.1202
    154  CA         6.0660    2.5990   24.3930 C.3   146  SER146      0.2020
    155  C          5.2560    2.3180   23.1110 C.2   146  SER146      0.2618
    156  O          4.0870    1.9820   23.1690 O.2   146  SER146     -0.2717
    157  CB         5.7520    3.9540   25.0300 C.3   146  SER146      0.2103
    158  OG         5.9370    5.0370   24.1140 O.3   146  SER146     -0.2182
    159  N          5.9460    2.4140   21.9530 N.am  147  ASN147     -0.1974
    160  CA         5.4040    2.0650   20.6250 C.3   147  ASN147      0.1688
    161  C          5.5970    0.5980   20.1610 C.2   147  ASN147      0.2292
    162  O          5.2460    0.2390   19.0400 O.2   147  ASN147     -0.2864
    163  CB         6.0860    2.9790   19.5720 C.3   147  ASN147      0.1181
    164  CG         5.3660    4.2720   19.3950 C.2   147  ASN147      0.2629
    165  OD1        5.9050    5.2240   18.8600 O.2   147  ASN147     -0.2716
    166  ND2        4.1090    4.3050   19.8380 N.am  147  ASN147     -0.0877
    167  N          4.7150   -3.2990   21.0670 N.3   149  ALA149     -0.1245
    168  CA         3.7400   -4.0390   21.8720 C.3   149  ALA149      0.1562
    169  C          4.1500   -5.5020   21.9310 C.2   149  ALA149      0.2260
    170  O          4.6520   -6.0700   20.9580 O.2   149  ALA149     -0.2867
    171  CB         2.3630   -3.9310   21.2260 C.3   149  ALA149      0.0290
    172  N          3.7070   -0.7090   16.7410 N.3   159  LEU159     -0.1231
    173  CA         2.5770    0.2080   16.5840 C.3   159  LEU159      0.1693
    174  C          2.9960    1.5810   15.9990 C.2   159  LEU159      0.2592
    175  O          4.1500    2.0310   16.1390 O.2   159  LEU159     -0.2718
    176  CB         1.9890    0.5180   17.9650 C.3   159  LEU159      0.0284
    177  CG         1.6660   -0.6320   18.9210 C.3   159  LEU159      0.0019
    178  CD1        2.0700   -0.2420   20.3320 C.3   159  LEU159      0.0001
    179  CD2        0.1690   -0.9320   18.9300 C.3   159  LEU159      0.0001
    180  N          1.9570    2.2690   15.4500 N.am  160  ASP160     -0.1974
    181  CA         1.9440    3.7170   15.0770 C.3   160  ASP160      0.1709
    182  C          3.0070    4.1570   14.0330 C.2   160  ASP160      0.2293
    183  O          3.2710    5.3400   13.8890 O.2   160  ASP160     -0.2864
    184  CB         2.1190    4.6040   16.3320 C.3   160  ASP160      0.1436
    185  CG         0.8740    4.6400   17.2720 C.2   160  ASP160      0.3671
    186  OD1        0.0480    3.7210   17.2540 O.co2 160  ASP160     -0.2456
    187  OD2        0.7230    5.5790   18.0700 O.co2 160  ASP160     -0.2456
@<TRIPOS>BOND
     1    62    63    2
     2    62    61    1
     3    60    61    1
     4    86    85    1
     5    61    64    1
     6    51    52    1
     7    53    54    2
     8    53    52    1
     9    84    85    1
    10    84    81    1
    11    83    82    2
    12    85    87    1
    13    64    65    1
    14    52    55    1
    15    82    81    1
    16    80    81    1
    17    80    78   am
    18    65    67    1
    19    65    66    1
    20    55    56    1
    21    77    78    1
    22    77    76    1
    23    78    79    2
    24    95    93    1
    25    71    70    2
    26    56    57    1
    27    76    70   am
    28    70    69    1
    29    93    94    1
    30    93    92    1
    31    57    58   ar
    32    57    59   ar
    33    68    69    1
    34    99    98    2
    35    69    72    1
    36    92    89    1
    37   183   182    2
    38   182   181    1
    39    89    88    1
    40    89    90    1
    41   118   119   ar
    42   118   116   ar
    43    74    72    1
    44    96    90   am
    45    96    97    1
    46   119   117   ar
    47    72    73    1
    48    98    97    1
    49    98   103   am
    50   108   107    1
    51   181   180    1
    52   181   184    1
    53    90    91    2
    54   116   115   ar
    55   100    97    1
    56   100   102    1
    57   100   101    1
    58   107   104    1
    59   107   109    1
    60   180   174   am
    61   104   103    1
    62   104   105    1
    63   117   115   ar
    64   174   175    2
    65   174   173    1
    66    73    75    1
    67   115   114    1
    68   184   185    1
    69    50    49    1
    70   173   172    1
    71   173   176    1
    72    49    48    1
    73   110   105   am
    74   110   111    1
    75   105   106    2
    76    45    44    2
    77   186   185   ar
    78   185   187   ar
    79   114   111    1
    80    21    20    2
    81   111   112    1
    82   176   177    1
    83    44    43    1
    84    48    47    1
    85    46    47    1
    86    46    43    1
    87    40    39    2
    88    22    19    1
    89    22    23    1
    90    42    43    1
    91    24    23   ar
    92    24    26   ar
    93    20    19    1
    94    19    18    1
    95   165   164    2
    96   177   179    1
    97   177   178    1
    98   113   112    2
    99   162   161    2
   100   112   120   am
   101    23    25   ar
   102   164   163    1
   103   164   166   am
   104    26    28   ar
   105   163   160    1
   106    39    38    1
   107   134   133    1
   108   134   135    1
   109   161   160    1
   110   120   121    1
   111    37    38    1
   112   133   132    1
   113    25    27   ar
   114   160   159    1
   115    38    41    1
   116    28    27   ar
   117    28    29    1
   118   170   169    2
   119   167   168    1
   120   171   168    1
   121   121   122    1
   122   121   124    1
   123    36    34    1
   124   168   169    1
   125   123   122    2
   126   159   155   am
   127   122   128   am
   128   132   129    1
   129   128   129    1
   130   124   125    1
   131    35    34    1
   132   129   130    1
   133    34    31    1
   134    31    30    1
   135    31    32    1
   136   155   156    2
   137   155   154    1
   138   125   126    1
   139   125   127    1
   140   158   157    1
   141    32    33    2
   142   153   154    1
   143   130   131    2
   144   130   136   am
   145   154   157    1
   146   143   142    2
   147   136   137    1
   148    14    15    2
   149    14    13    1
   150   149   146    1
   151   149   150    1
   152    13    12    1
   153    13    16    1
   154   146   147    1
   155   146   145    1
   156    17    16    1
   157    11    10    2
   158   142   145   am
   159   142   141    1
   160    12    10   am
   161    10     9    1
   162   147   148    2
   163     6     5    1
   164   150   151   ar
   165   150   152   ar
   166   137   138    1
   167   140   138   am
   168   140   141    1
   169     5     7    1
   170     5     2    1
   171   138   139    2
   172   141   144    1
   173     9     8    1
   174     8     3   am
   175     3     2    1
   176     3     4    2
   177     1     2    1
