@<TRIPOS>MOLECULE
tmp/2ghmA00.pdb
 193 184 0 0 0
SMALL
GASTEIGER

@<TRIPOS>ATOM
      1  N          8.9740   -1.6890   28.2220 N.3    26  VAL26      -0.1231
      2  CA         7.5730   -1.3320   28.5530 C.3    26  VAL26       0.1692
      3  C          6.6670   -2.5650   28.7450 C.2    26  VAL26       0.2593
      4  O          5.5080   -2.4640   29.1420 O.2    26  VAL26      -0.2718
      5  CB         6.9300   -0.3700   27.4660 C.3    26  VAL26       0.0266
      6  CG1        6.0050    0.6320   28.1060 C.3    26  VAL26       0.0020
      7  CG2        7.9710    0.3840   26.7090 C.3    26  VAL26       0.0020
      8  N          7.2080   -3.7320   28.4660 N.am   27  GLY27      -0.1942
      9  CA         6.4920   -4.9690   28.6730 C.3    27  GLY27       0.2014
     10  C          6.7680   -5.9560   27.5600 C.2    27  GLY27       0.2640
     11  O          7.7220   -5.8220   26.7710 O.2    27  GLY27      -0.2714
     12  N          5.8990   -6.9530   27.4770 N.am   28  SER28      -0.1935
     13  CA         6.1910   -8.1130   26.6540 C.3    28  SER28       0.2055
     14  C          4.9480   -8.8230   26.0990 C.2    28  SER28       0.2643
     15  O          3.8080   -8.4510   26.3890 O.2    28  SER28      -0.2714
     16  CB         7.0870   -9.0520   27.4590 C.3    28  SER28       0.2130
     17  OG         8.3320   -8.4130   27.7000 O.3    28  SER28      -0.2179
     18  N          5.2040   -9.8180   25.2600 N.am   29  GLY29      -0.1954
     19  CA         4.1720  -10.4680   24.4740 C.3    29  GLY29       0.1869
     20  C          4.8220  -11.5620   23.6460 C.2    29  GLY29       0.2309
     21  O          6.0680  -11.6650   23.6380 O.2    29  GLY29      -0.2863
     22  N          4.8180  -12.0230   20.2880 N.3    31  TYR31      -0.1227
     23  CA         5.2340  -11.6670   18.9150 C.3    31  TYR31       0.1736
     24  C          6.4290  -10.6800   18.8910 C.2    31  TYR31       0.2596
     25  O          7.1220  -10.5040   17.8850 O.2    31  TYR31      -0.2718
     26  CB         4.0570  -11.0750   18.1550 C.3    31  TYR31       0.0548
     27  CG         2.7960  -11.9200   18.1040 C.ar   31  TYR31      -0.0200
     28  CD1        2.4900  -12.6640   16.9660 C.ar   31  TYR31      -0.0009
     29  CD2        1.8790  -11.9320   19.1720 C.ar   31  TYR31      -0.0009
     30  CE1        1.3250  -13.4080   16.8670 C.ar   31  TYR31       0.0417
     31  CE2        0.6770  -12.6860   19.0870 C.ar   31  TYR31       0.0417
     32  CZ         0.4140  -13.4270   17.9180 C.ar   31  TYR31       0.1957
     33  OH        -0.7410  -14.1870   17.7770 O.3    31  TYR31      -0.2866
     34  N          6.6420  -10.0310   20.0150 N.am   32  GLY32      -0.1942
     35  CA         7.8260   -9.2330   20.2050 C.3    32  GLY32       0.2014
     36  C          7.7690   -8.6380   21.5730 C.2    32  GLY32       0.2640
     37  O          6.8720   -8.9400   22.3750 O.2    32  GLY32      -0.2714
     38  N          8.7290   -7.7790   21.8510 N.am   33  SER33      -0.1935
     39  CA         8.6760   -6.9710   23.0490 C.3    33  SER33       0.2055
     40  C          9.0930   -5.5080   22.7220 C.2    33  SER33       0.2642
     41  O          9.6930   -5.2370   21.6600 O.2    33  SER33      -0.2714
     42  CB         9.4820   -7.6580   24.1770 C.3    33  SER33       0.2130
     43  OG        10.8680   -7.4870   24.0190 O.3    33  SER33      -0.2179
     44  N          8.7310   -4.5680   23.5980 N.am   34  VAL34      -0.1977
     45  CA         8.8860   -3.1360   23.3090 C.3    34  VAL34       0.1596
     46  C          9.7120   -2.3810   24.3660 C.2    34  VAL34       0.2287
     47  O          9.5780   -2.6150   25.5450 O.2    34  VAL34      -0.2864
     48  CB         7.4710   -2.4590   23.1090 C.3    34  VAL34       0.0276
     49  CG1        7.5450   -0.9610   22.9310 C.3    34  VAL34       0.0022
     50  CG2        6.7680   -3.0790   21.9210 C.3    34  VAL34       0.0022
     51  N          8.3990    4.4050   20.4410 N.3    47  ALA47      -0.1245
     52  CA         8.2680    3.0200   20.9000 C.3    47  ALA47       0.1562
     53  C          8.9030    2.1160   19.8690 C.2    47  ALA47       0.2260
     54  O          8.5710    2.2050   18.6710 O.2    47  ALA47      -0.2867
     55  CB         6.8080    2.6530   21.0960 C.3    47  ALA47       0.0290
     56  N          9.9040   -1.8990   18.8610 N.3    49  LYS49      -0.1245
     57  CA         9.4370   -3.2680   19.0170 C.3    49  LYS49       0.1561
     58  C         10.3790   -4.1850   18.2460 C.2    49  LYS49       0.2260
     59  O         10.4300   -4.1110   17.0180 O.2    49  LYS49      -0.2867
     60  CB         7.9880   -3.4080   18.4800 C.3    49  LYS49       0.0271
     61  CG         7.5160   -4.8760   18.1750 C.3    49  LYS49       0.0035
     62  CD         6.0010   -5.1840   18.3730 C.3    49  LYS49       0.0206
     63  CE         5.1840   -4.9500   17.1530 C.3    49  LYS49       0.1093
     64  NZ         3.6690   -5.0480   17.3370 N.3    49  LYS49      -0.1314
     65  N          3.2150   -7.9340    8.7290 N.3    67  GLU67      -0.1245
     66  CA         3.1610   -6.7870    9.6450 C.3    67  GLU67       0.1567
     67  C          3.8660   -5.5530    9.0640 C.2    67  GLU67       0.2260
     68  O          3.3510   -4.4500    9.1660 O.2    67  GLU67      -0.2867
     69  CB         3.7390   -7.0310   11.0580 C.3    67  GLU67       0.0388
     70  CG         3.1710   -6.0020   12.0750 C.3    67  GLU67       0.1160
     71  CD         3.9160   -5.8840   13.3840 C.2    67  GLU67       0.3649
     72  OE1        4.7010   -6.8120   13.7130 O.co2  67  GLU67      -0.2457
     73  OE2        3.7120   -4.8840   14.1380 O.co2  67  GLU67      -0.2457
     74  N          2.3940   -2.0090    7.9800 N.3    71  LEU71      -0.1245
     75  CA         2.8110   -0.8130    8.6830 C.3    71  LEU71       0.1561
     76  C          3.3070    0.2560    7.7220 C.2    71  LEU71       0.2260
     77  O          3.1050    1.4190    7.9310 O.2    71  LEU71      -0.2867
     78  CB         3.9140   -1.1190    9.7360 C.3    71  LEU71       0.0270
     79  CG         3.3940   -1.7190   11.0350 C.3    71  LEU71       0.0019
     80  CD1        4.5520   -2.3170   11.8070 C.3    71  LEU71       0.0001
     81  CD2        2.5780   -0.7830   11.8760 C.3    71  LEU71       0.0001
     82  N         -1.7290    3.4270   14.0840 N.3    80  ILE80      -0.1231
     83  CA        -0.3230    3.5620   14.4570 C.3    80  ILE80       0.1692
     84  C          0.5150    3.4460   13.2000 C.2    80  ILE80       0.2593
     85  O          0.1430    2.7390   12.2740 O.2    80  ILE80      -0.2718
     86  CB         0.0750    2.5830   15.5910 C.3    80  ILE80       0.0266
     87  CG1        1.0570    3.2630   16.5900 C.3    80  ILE80       0.0019
     88  CG2        0.6690    1.2930   15.0580 C.3    80  ILE80       0.0020
     89  CD1        0.8620    2.8310   18.0770 C.3    80  ILE80       0.0001
     90  N          1.6000    4.2070   13.1180 N.am   81  GLY81      -0.1942
     91  CA         2.3680    4.2840   11.8760 C.3    81  GLY81       0.2014
     92  C          3.8550    4.0660   12.0570 C.2    81  GLY81       0.2638
     93  O          4.3920    4.1460   13.1570 O.2    81  GLY81      -0.2714
     94  N          4.5320    3.8170   10.9470 N.am   82  LEU82      -0.1977
     95  CA         5.9530    3.4830   10.9800 C.3    82  LEU82       0.1596
     96  C          6.8880    4.7120   10.9400 C.2    82  LEU82       0.2287
     97  O          7.1200    5.2810    9.8800 O.2    82  LEU82      -0.2864
     98  CB         6.3110    2.5580    9.7950 C.3    82  LEU82       0.0297
     99  CG         6.7970    1.1260   10.0610 C.3    82  LEU82       0.0022
    100  CD1        7.8770    0.6690    9.0600 C.3    82  LEU82       0.0001
    101  CD2        7.2460    0.8750   11.4240 C.3    82  LEU82       0.0001
    102  N         10.8030   -2.2490   14.7870 N.3   100  LEU100     -0.1231
    103  CA         9.8590   -1.2690   14.2400 C.3   100  LEU100      0.1693
    104  C          9.7260   -0.1330   15.2360 C.2   100  LEU100      0.2592
    105  O          9.8370   -0.3500   16.4430 O.2   100  LEU100     -0.2718
    106  CB         8.4920   -1.9350   14.0230 C.3   100  LEU100      0.0284
    107  CG         8.5010   -3.2680   13.2910 C.3   100  LEU100      0.0019
    108  CD1        7.1630   -4.0190   13.4480 C.3   100  LEU100      0.0001
    109  CD2        8.8490   -3.0500   11.8570 C.3   100  LEU100      0.0001
    110  N          9.4940    1.0810   14.7530 N.am  101  VAL101     -0.1966
    111  CA         9.4670    2.2620   15.6420 C.3   101  VAL101      0.1727
    112  C          8.2590    3.0700   15.2580 C.2   101  VAL101      0.2617
    113  O          7.9810    3.2080   14.0880 O.2   101  VAL101     -0.2715
    114  CB        10.7430    3.1760   15.4960 C.3   101  VAL101      0.0290
    115  CG1       10.6740    4.4170   16.4940 C.3   101  VAL101      0.0023
    116  CG2       12.0420    2.3500   15.7230 C.3   101  VAL101      0.0023
    117  N          7.5230    3.5490   16.2470 N.am  102  THR102     -0.1937
    118  CA         6.3950    4.4590   16.0680 C.3   102  THR102      0.2028
    119  C          6.3180    5.3970   17.2640 C.2   102  THR102      0.2642
    120  O          7.0550    5.1780   18.2230 O.2   102  THR102     -0.2714
    121  CB         5.0870    3.6700   15.9370 C.3   102  THR102      0.1808
    122  OG1        4.0260    4.5610   15.5770 O.3   102  THR102     -0.2208
    123  CG2        4.6600    3.0940   17.2410 C.3   102  THR102      0.0379
    124  N          5.4340    6.4080   17.2520 N.am  103  HIS103     -0.1959
    125  CA         5.3810    7.3730   18.3690 C.3   103  HIS103      0.1787
    126  C          4.9680    6.6560   19.6450 C.2   103  HIS103      0.2620
    127  O          4.1930    5.7080   19.6230 O.2   103  HIS103     -0.2715
    128  CB         4.3410    8.4500   18.1440 C.3   103  HIS103      0.0785
    129  CG         4.6260    9.3660   17.0070 C.ar  103  HIS103      0.0821
    130  ND1        5.2550    8.9580   15.8540 N.ar  103  HIS103     -0.2267
    131  CD2        4.2900   10.6610   16.8110 C.ar  103  HIS103      0.1154
    132  CE1        5.3250    9.9700   15.0080 C.ar  103  HIS103      0.1986
    133  NE2        4.7460   11.0140   15.5660 N.ar  103  HIS103     -0.2212
    134  N          5.4880    7.1000   20.7720 N.am  104  LEU104     -0.1963
    135  CA         5.0570    6.4670   22.0190 C.3   104  LEU104      0.1728
    136  C          3.6570    6.9750   22.4830 C.2   104  LEU104      0.2616
    137  O          3.4140    8.2060   22.5480 O.2   104  LEU104     -0.2715
    138  CB         6.0860    6.6700   23.1060 C.3   104  LEU104      0.0311
    139  CG         5.7100    5.9900   24.4080 C.3   104  LEU104      0.0022
    140  CD1        5.8820    4.4960   24.3010 C.3   104  LEU104      0.0001
    141  CD2        6.5460    6.5340   25.5120 C.3   104  LEU104      0.0001
    142  N          2.7640    6.0350   22.8110 N.am  105  MET105     -0.1963
    143  CA         1.4740    6.3450   23.3660 C.3   105  MET105      0.1736
    144  C          1.4930    5.9710   24.8470 C.2   105  MET105      0.2617
    145  O          2.1350    5.0160   25.2070 O.2   105  MET105     -0.2715
    146  CB         0.3930    5.5440   22.6330 C.3   105  MET105      0.0427
    147  CG         0.4000    5.7040   21.1020 C.3   105  MET105      0.0599
    148  SD         0.0330    7.3690   20.5560 S.3   105  MET105     -0.1393
    149  CE        -1.7020    7.5230   21.1430 C.3   105  MET105      0.0692
    150  N          0.7700    6.6980   25.6860 N.am  106  GLY106     -0.1940
    151  CA         0.9090    6.5710   27.1410 C.3   106  GLY106      0.2014
    152  C          0.0430    5.5430   27.8520 C.2   106  GLY106      0.2639
    153  O          0.3330    5.1300   28.9710 O.2   106  GLY106     -0.2714
    154  N         -1.0400    5.1320   27.2190 N.am  107  ALA107     -0.1963
    155  CA        -1.9640    4.1840   27.8390 C.3   107  ALA107      0.1728
    156  C         -2.8570    3.4620   26.8080 C.2   107  ALA107      0.2616
    157  O         -2.9990    3.8910   25.6580 O.2   107  ALA107     -0.2715
    158  CB        -2.8150    4.8880   28.8990 C.3   107  ALA107      0.0334
    159  N         -3.4210    2.3380   27.2180 N.am  108  ASP108     -0.1971
    160  CA        -4.3930    1.6520   26.3930 C.3   108  ASP108      0.1709
    161  C         -5.7750    1.7950   27.0620 C.2   108  ASP108      0.2293
    162  O         -5.8710    2.1780   28.2100 O.2   108  ASP108     -0.2864
    163  CB        -3.9310    0.2270   26.0210 C.3   108  ASP108      0.1436
    164  CG        -4.0320   -0.7620   27.1600 C.2   108  ASP108      0.3671
    165  OD1       -3.3250   -1.8320   27.1590 O.co2 108  ASP108     -0.2456
    166  OD2       -4.8260   -0.5870   28.0840 O.co2 108  ASP108     -0.2456
    167  N         -7.2900   -3.0960   24.7580 N.3   149  SER149     -0.1217
    168  CA        -5.8110   -3.1040   24.8230 C.3   149  SER149      0.1889
    169  C         -5.1450   -2.8210   23.4980 C.2   149  SER149      0.2288
    170  O         -4.0190   -2.4450   23.5020 O.2   149  SER149     -0.2866
    171  CB        -5.2930   -4.4370   25.3620 C.3   149  SER149      0.2089
    172  OG        -6.1100   -5.4600   24.9060 O.3   149  SER149     -0.2183
    173  N         -4.7320    2.6660   21.7480 N.3   152  ALA152     -0.1245
    174  CA        -3.7930    3.4500   22.5400 C.3   152  ALA152      0.1562
    175  C         -4.1720    4.9160   22.5470 C.2   152  ALA152      0.2260
    176  O         -4.5160    5.4710   21.5240 O.2   152  ALA152     -0.2867
    177  CB        -2.3700    3.2800   21.9910 C.3   152  ALA152      0.0290
    178  N         -3.5540    0.2900   17.3480 N.3   162  LEU162     -0.1231
    179  CA        -2.5230   -0.7260   17.1520 C.3   162  LEU162      0.1693
    180  C         -3.0200   -2.0230   16.3990 C.2   162  LEU162      0.2592
    181  O         -4.2220   -2.3490   16.3190 O.2   162  LEU162     -0.2718
    182  CB        -2.0000   -1.1780   18.5030 C.3   162  LEU162      0.0284
    183  CG        -1.2590   -0.2530   19.4500 C.3   162  LEU162      0.0019
    184  CD1       -2.0850    0.9010   19.8310 C.3   162  LEU162      0.0001
    185  CD2       -0.8810   -1.0320   20.7230 C.3   162  LEU162      0.0001
    186  N         -2.0460   -2.8550   16.0630 N.am  163  ASP163     -0.1974
    187  CA        -2.0330   -3.6360   14.8300 C.3   163  ASP163      0.1709
    188  C         -3.2160   -4.6190   14.4350 C.2   163  ASP163      0.2293
    189  O         -3.3130   -5.7790   14.8810 O.2   163  ASP163     -0.2864
    190  CB        -0.6110   -4.2120   14.6380 C.3   163  ASP163      0.1436
    191  CG         0.5150   -3.1940   15.0870 C.2   163  ASP163      0.3671
    192  OD1        0.1790   -1.9770   15.3360 O.co2 163  ASP163     -0.2456
    193  OD2        1.7220   -3.5520   15.2810 O.co2 163  ASP163     -0.2456
@<TRIPOS>BOND
     1    76    77    2
     2    76    75    1
     3    74    75    1
     4    75    78    1
     5    65    66    1
     6   100    99    1
     7    67    68    2
     8    67    66    1
     9    66    69    1
    10    78    79    1
    11    98    99    1
    12    98    95    1
    13    97    96    2
    14    99   101    1
    15    96    95    1
    16    94    95    1
    17    94    92   am
    18    79    80    1
    19    79    81    1
    20    69    70    1
    21   109   107    1
    22    91    92    1
    23    91    90    1
    24    92    93    2
    25    70    71    1
    26    85    84    2
    27    90    84   am
    28    84    83    1
    29   107   108    1
    30   107   106    1
    31    71    72   ar
    32    71    73   ar
    33   106   103    1
    34    82    83    1
    35   113   112    2
    36   103   102    1
    37   103   104    1
    38   188   187    1
    39   188   189    2
    40    83    86    1
    41   190   187    1
    42   190   191    1
    43   110   104   am
    44   110   111    1
    45   187   186    1
    46   132   133   ar
    47   132   130   ar
    48    88    86    1
    49   191   193   ar
    50   191   192   ar
    51   104   105    2
    52   112   111    1
    53   112   117   am
    54   114   111    1
    55   114   116    1
    56   114   115    1
    57   133   131   ar
    58   122   121    1
    59    86    87    1
    60   130   129   ar
    61   121   118    1
    62   121   123    1
    63   186   180   am
    64   118   117    1
    65   118   119    1
    66   181   180    2
    67   180   179    1
    68    87    89    1
    69   131   129   ar
    70    30    28   ar
    71    30    32   ar
    72    28    27   ar
    73   129   128    1
    74    59    58    2
    75   179   178    1
    76   179   182    1
    77    63    64    1
    78    63    62    1
    79   124   119   am
    80   124   125    1
    81   119   120    2
    82    33    32    1
    83    25    24    2
    84    32    31   ar
    85    27    26    1
    86    27    29   ar
    87   128   125    1
    88    26    23    1
    89    61    62    1
    90    61    60    1
    91    58    57    1
    92   125   126    1
    93    60    57    1
    94   182   183    1
    95    54    53    2
    96    56    57    1
    97    24    23    1
    98    24    34   am
    99    23    22    1
   100    31    29   ar
   101   183   184    1
   102   183   185    1
   103   127   126    2
   104   126   134   am
   105    53    52    1
   106    34    35    1
   107    35    36    1
   108    51    52    1
   109   148   147    1
   110   148   149    1
   111   134   135    1
   112    52    55    1
   113   147   146    1
   114   176   175    2
   115    36    38   am
   116    36    37    2
   117    41    40    2
   118   173   174    1
   119    38    39    1
   120    50    48    1
   121   177   174    1
   122   135   136    1
   123   135   138    1
   124   136   137    2
   125   136   142   am
   126   174   175    1
   127   146   143    1
   128    40    39    1
   129    40    44   am
   130   142   143    1
   131    49    48    1
   132    39    42    1
   133   138   139    1
   134    48    45    1
   135    45    44    1
   136    45    46    1
   137   143   144    1
   138   169   170    2
   139   169   168    1
   140    21    20    2
   141    20    19    1
   142    43    42    1
   143   140   139    1
   144    46    47    2
   145   139   141    1
   146    19    18    1
   147   167   168    1
   148   168   171    1
   149   144   145    2
   150   144   150   am
   151   172   171    1
   152    18    14   am
   153   157   156    2
   154   150   151    1
   155   163   160    1
   156   163   164    1
   157    14    15    2
   158    14    13    1
   159   160   161    1
   160   160   159    1
   161    13    16    1
   162    13    12    1
   163     7     5    1
   164    11    10    2
   165   156   159   am
   166   156   155    1
   167   161   162    2
   168   151   152    1
   169   165   164   ar
   170   164   166   ar
   171   154   155    1
   172   154   152   am
   173    16    17    1
   174     5     6    1
   175     5     2    1
   176    12    10   am
   177    10     9    1
   178   155   158    1
   179   152   153    2
   180     1     2    1
   181     8     9    1
   182     8     3   am
   183     2     3    1
   184     3     4    2
