@<TRIPOS>MOLECULE
tmp/2ghqA00.pdb
 167 158 0 0 0
SMALL
GASTEIGER

@<TRIPOS>ATOM
      1  N         26.2690   -0.5690    6.0790 N.3    20  ASN20      -0.1225
      2  CA        27.3410   -0.7050    5.1090 C.3    20  ASN20       0.1785
      3  C         28.1260    0.6160    5.0740 C.2    20  ASN20       0.2597
      4  O         27.5960    1.6640    5.4580 O.2    20  ASN20      -0.2718
      5  CB        26.7170   -1.0180    3.7380 C.3    20  ASN20       0.1169
      6  CG        27.7430   -1.3070    2.6730 C.2    20  ASN20       0.2627
      7  OD1       27.7900   -0.6190    1.6560 O.2    20  ASN20      -0.2716
      8  ND2       28.5180   -2.2540    2.8910 N.am   20  ASN20      -0.0877
      9  N         29.3700    0.5620    4.6070 N.am   21  LEU21      -0.1966
     10  CA        30.2000    1.7630    4.5210 C.3    21  LEU21       0.1728
     11  C         30.2390    2.4160    3.1110 C.2    21  LEU21       0.2616
     12  O         29.6140    3.4630    2.8560 O.2    21  LEU21      -0.2715
     13  CB        31.6360    1.4420    4.9830 C.3    21  LEU21       0.0311
     14  CG        32.6360    2.6150    4.8840 C.3    21  LEU21       0.0022
     15  CD1       32.1920    3.7590    5.8120 C.3    21  LEU21       0.0001
     16  CD2       34.0190    2.1360    5.2750 C.3    21  LEU21       0.0001
     17  N         30.9540    1.7840    2.1960 N.am   22  ASP22      -0.1957
     18  CA        31.1140    2.3280    0.8570 C.3    22  ASP22       0.1840
     19  C         29.8550    2.4120    0.0170 C.2    22  ASP22       0.2621
     20  O         29.0970    1.4510   -0.0970 O.2    22  ASP22      -0.2715
     21  CB        32.1890    1.5620    0.1070 C.3    22  ASP22       0.1450
     22  CG        33.5790    1.8440    0.6510 C.2    22  ASP22       0.3671
     23  OD1       34.0030    3.0270    0.6350 O.co2  22  ASP22      -0.2456
     24  OD2       34.2470    0.8770    1.0900 O.co2  22  ASP22      -0.2456
     25  N         29.6600    3.5950   -0.5630 N.am   23  GLU23      -0.1977
     26  CA        28.5050    3.9140   -1.3920 C.3    23  GLU23       0.1602
     27  C         27.2100    4.0200   -0.5870 C.2    23  GLU23       0.2287
     28  O         26.1390    4.3240   -1.1460 O.2    23  GLU23      -0.2864
     29  CB        28.3450    2.8940   -2.5180 C.3    23  GLU23       0.0415
     30  CG        29.3230    3.1030   -3.6520 C.3    23  GLU23       0.1163
     31  CD        30.7370    2.6480   -3.3090 C.2    23  GLU23       0.3649
     32  OE1       30.9590    1.4220   -3.1090 O.co2  23  GLU23      -0.2457
     33  OE2       31.6390    3.5130   -3.2410 O.co2  23  GLU23      -0.2457
     34  N         34.7600    6.6850   -1.5740 N.3    28  SER28      -0.1217
     35  CA        36.1900    6.9200   -1.6150 C.3    28  SER28       0.1889
     36  C         36.8170    6.6470   -2.9640 C.2    28  SER28       0.2288
     37  O         36.2710    5.9060   -3.7880 O.2    28  SER28      -0.2866
     38  CB        36.8730    6.0510   -0.5600 C.3    28  SER28       0.2089
     39  OG        36.3100    6.3480    0.7080 O.3    28  SER28      -0.2183
     40  N         41.0310    6.7730   -5.1170 N.3    30  PHE30      -0.1241
     41  CA        42.4610    6.9930   -5.0210 C.3    30  PHE30       0.1605
     42  C         42.8270    8.2070   -5.8860 C.2    30  PHE30       0.2264
     43  O         43.9590    8.6870   -5.8720 O.2    30  PHE30      -0.2867
     44  CB        43.2270    5.7610   -5.4810 C.3    30  PHE30       0.0534
     45  CG        43.2040    4.6210   -4.4930 C.ar   30  PHE30      -0.0203
     46  CD1       42.1820    3.6710   -4.5250 C.ar   30  PHE30      -0.0042
     47  CD2       44.2060    4.4890   -3.5360 C.ar   30  PHE30      -0.0042
     48  CE1       42.1680    2.6060   -3.6160 C.ar   30  PHE30      -0.0003
     49  CE2       44.1960    3.4290   -2.6220 C.ar   30  PHE30      -0.0003
     50  CZ        43.1720    2.4860   -2.6670 C.ar   30  PHE30      -0.0000
     51  N         46.7960    4.5280    3.0970 N.3    42  VAL42      -0.1245
     52  CA        46.6190    3.0860    3.1120 C.3    42  VAL42       0.1561
     53  C         47.8400    2.4460    2.4720 C.2    42  VAL42       0.2260
     54  O         48.1640    2.7170    1.3210 O.2    42  VAL42      -0.2867
     55  CB        45.3300    2.6890    2.3660 C.3    42  VAL42       0.0252
     56  CG1       45.1320    1.1840    2.4050 C.3    42  VAL42       0.0019
     57  CG2       44.1210    3.3690    3.0310 C.3    42  VAL42       0.0019
     58  N         49.8940   -0.4890    0.8680 N.3    44  ILE44      -0.1245
     59  CA        49.6620   -1.6710    0.0500 C.3    44  ILE44       0.1561
     60  C         50.9850   -2.1000   -0.5840 C.2    44  ILE44       0.2260
     61  O         51.5960   -1.3410   -1.3370 O.2    44  ILE44      -0.2867
     62  CB        48.6340   -1.3720   -1.0400 C.3    44  ILE44       0.0252
     63  CG1       47.3180   -0.9670   -0.3730 C.3    44  ILE44       0.0019
     64  CG2       48.4130   -2.6090   -1.9150 C.3    44  ILE44       0.0019
     65  CD1       46.3080   -0.3860   -1.2990 C.3    44  ILE44       0.0001
     66  N         43.8370    7.7480    0.1760 N.3    51  VAL51      -0.1245
     67  CA        42.4600    7.5220   -0.2200 C.3    51  VAL51       0.1561
     68  C         41.6660    8.7520    0.1530 C.2    51  VAL51       0.2260
     69  O         41.7350    9.2200    1.2960 O.2    51  VAL51      -0.2867
     70  CB        41.8560    6.2960    0.4870 C.3    51  VAL51       0.0252
     71  CG1       40.3690    6.1950    0.1880 C.3    51  VAL51       0.0019
     72  CG2       42.5750    5.0560    0.0000 C.3    51  VAL51       0.0019
     73  N         31.1870   -4.2140    6.5360 N.3    76  THR76      -0.1203
     74  CA        31.6480   -3.8030    5.2170 C.3    76  THR76       0.1994
     75  C         32.4650   -4.9160    4.5730 C.2    76  THR76       0.2618
     76  O         33.0810   -5.7420    5.2810 O.2    76  THR76      -0.2717
     77  CB        32.5480   -2.5220    5.3450 C.3    76  THR76       0.1784
     78  OG1       33.0380   -2.1400    4.0570 O.3    76  THR76      -0.2211
     79  CG2       33.7340   -2.7960    6.2580 C.3    76  THR76       0.0376
     80  N         32.5070   -4.9140    3.2400 N.am   77  ALA77      -0.1965
     81  CA        33.2970   -5.9160    2.5260 C.3    77  ALA77       0.1728
     82  C         34.6520   -5.2940    2.2140 C.2    77  ALA77       0.2617
     83  O         35.4270   -5.8450    1.4290 O.2    77  ALA77      -0.2715
     84  CB        32.5950   -6.3380    1.2290 C.3    77  ALA77       0.0334
     85  N         34.9390   -4.1390    2.8230 N.am   78  SER78      -0.1936
     86  CA        36.2250   -3.4730    2.5960 C.3    78  SER78       0.2055
     87  C         37.2360   -3.9180    3.6490 C.2    78  SER78       0.2642
     88  O         36.8530   -4.5050    4.6400 O.2    78  SER78      -0.2714
     89  CB        36.0730   -1.9520    2.6530 C.3    78  SER78       0.2130
     90  OG        35.8050   -1.5470    3.9700 O.3    78  SER78      -0.2179
     91  N         38.5200   -3.6370    3.4300 N.am   79  LEU79      -0.1977
     92  CA        39.5620   -4.0280    4.3710 C.3    79  LEU79       0.1596
     93  C         39.6380   -3.0540    5.5510 C.2    79  LEU79       0.2287
     94  O         39.4150   -1.8410    5.3990 O.2    79  LEU79      -0.2864
     95  CB        40.9220   -4.0950    3.6720 C.3    79  LEU79       0.0297
     96  CG        41.1010   -5.1060    2.5350 C.3    79  LEU79       0.0022
     97  CD1       42.5350   -5.0050    1.9800 C.3    79  LEU79       0.0001
     98  CD2       40.8670   -6.5170    3.0560 C.3    79  LEU79       0.0001
     99  N         42.2060   -1.9090    7.1320 N.3    81  LYS81      -0.1231
    100  CA        43.2200   -0.8700    6.9920 C.3    81  LYS81       0.1693
    101  C         42.6560    0.3360    6.2530 C.2    81  LYS81       0.2592
    102  O         43.2850    1.3980    6.1920 O.2    81  LYS81      -0.2718
    103  CB        44.4760   -1.4090    6.2960 C.3    81  LYS81       0.0285
    104  CG        44.3390   -1.8420    4.8500 C.3    81  LYS81       0.0035
    105  CD        45.6580   -2.4950    4.4460 C.3    81  LYS81       0.0206
    106  CE        45.6470   -3.0280    3.0250 C.3    81  LYS81       0.1093
    107  NZ        47.0060   -3.5590    2.6490 N.3    81  LYS81      -0.1314
    108  N         41.4620    0.1750    5.7000 N.am   82  TYR82      -0.1976
    109  CA        40.8220    1.2820    5.0260 C.3    82  TYR82       0.1639
    110  C         39.6670    1.7450    5.8690 C.2    82  TYR82       0.2290
    111  O         39.6160    2.9010    6.2960 O.2    82  TYR82      -0.2864
    112  CB        40.3210    0.8650    3.6350 C.3    82  TYR82       0.0560
    113  CG        39.1950    1.7310    3.1040 C.ar   82  TYR82      -0.0198
    114  CD1       39.4180    3.0730    2.7450 C.ar   82  TYR82      -0.0009
    115  CD2       37.9040    1.2350    3.0210 C.ar   82  TYR82      -0.0009
    116  CE1       38.3640    3.9040    2.3170 C.ar   82  TYR82       0.0417
    117  CE2       36.8440    2.0410    2.5960 C.ar   82  TYR82       0.0417
    118  CZ        37.0660    3.3710    2.2490 C.ar   82  TYR82       0.1957
    119  OH        35.9700    4.1600    1.8890 O.3    82  TYR82      -0.2866
    120  N         35.8450   -7.3200    5.6870 N.3   102  ARG102     -0.1245
    121  CA        35.8690   -8.3840    4.6890 C.3   102  ARG102      0.1563
    122  C         35.9950   -9.8080    5.2330 C.2   102  ARG102      0.2260
    123  O         35.2520  -10.6960    4.8090 O.2   102  ARG102     -0.2867
    124  CB        36.9920   -8.1450    3.6780 C.3   102  ARG102      0.0307
    125  CG        36.8610   -9.0110    2.4160 C.3   102  ARG102      0.0489
    126  CD        36.9120   -8.1490    1.1760 C.3   102  ARG102      0.2205
    127  NE        38.2710   -8.0050    0.7210 N.pl3 102  ARG102     -0.0865
    128  CZ        38.7700   -6.9340    0.1140 C.cat 102  ARG102      0.5346
    129  NH1       38.0260   -5.8500   -0.1310 N.pl3 102  ARG102      0.1354
    130  NH2       40.0340   -6.9710   -0.2630 N.pl3 102  ARG102      0.1354
    131  N         30.8820  -11.0770   -1.8010 N.3   112  TYR112     -0.1241
    132  CA        31.1010  -11.1190   -0.3600 C.3   112  TYR112      0.1605
    133  C         29.7350  -10.8440    0.2520 C.2   112  TYR112      0.2264
    134  O         29.1950   -9.7380    0.1320 O.2   112  TYR112     -0.2867
    135  CB        32.0930  -10.0470    0.0910 C.3   112  TYR112      0.0534
    136  CG        33.5150  -10.3760   -0.2700 C.ar  112  TYR112     -0.0201
    137  CD1       34.2940  -11.2050    0.5440 C.ar  112  TYR112     -0.0009
    138  CD2       34.0660   -9.9000   -1.4550 C.ar  112  TYR112     -0.0009
    139  CE1       35.5880  -11.5510    0.1790 C.ar  112  TYR112      0.0417
    140  CE2       35.3480  -10.2440   -1.8270 C.ar  112  TYR112      0.0417
    141  CZ        36.1020  -11.0720   -1.0050 C.ar  112  TYR112      0.1957
    142  OH        37.3600  -11.4500   -1.3900 O.3   112  TYR112     -0.2866
    143  N         27.0350  -10.4940    3.4170 N.3   114  LYS114     -0.1245
    144  CA        26.9120  -10.1460    4.8270 C.3   114  LYS114      0.1561
    145  C         25.8930  -11.1650    5.3620 C.2   114  LYS114      0.2260
    146  O         24.6800  -10.9150    5.3270 O.2   114  LYS114     -0.2867
    147  CB        26.3350   -8.7320    5.0270 C.3   114  LYS114      0.0271
    148  CG        27.3270   -7.5700    4.9240 C.3   114  LYS114      0.0035
    149  CD        27.7810   -7.3110    3.5100 C.3   114  LYS114      0.0206
    150  CE        28.5260   -5.9930    3.4450 C.3   114  LYS114      0.1093
    151  NZ        28.8950   -5.6780    2.0510 N.3   114  LYS114     -0.1314
    152  N         22.2500   -1.5550    3.1910 N.3   130  ASP130     -0.1225
    153  CA        23.3520   -1.7050    2.2450 C.3   130  ASP130      0.1805
    154  C         22.9270   -1.2480    0.8460 C.2   130  ASP130      0.2597
    155  O         21.7930   -1.4790    0.4400 O.2   130  ASP130     -0.2718
    156  CB        23.7720   -3.1730    2.2100 C.3   130  ASP130      0.1424
    157  CG        25.1610   -3.3730    1.6710 C.2   130  ASP130      0.3668
    158  OD1       25.4770   -2.8670    0.5750 O.co2 130  ASP130     -0.2456
    159  OD2       25.9440   -4.0600    2.3480 O.co2 130  ASP130     -0.2456
    160  N         23.8290   -0.6030    0.1170 N.am  131  ASN131     -0.1974
    161  CA        23.5260   -0.1210   -1.2370 C.3   131  ASN131      0.1688
    162  C         23.5470   -1.2300   -2.3080 C.2   131  ASN131      0.2292
    163  O         23.0830   -1.0150   -3.4240 O.2   131  ASN131     -0.2864
    164  CB        24.5430    0.9400   -1.6530 C.3   131  ASN131      0.1181
    165  CG        25.9380    0.3530   -1.7900 C.2   131  ASN131      0.2629
    166  OD1       26.5760   -0.0270   -0.7960 O.2   131  ASN131     -0.2716
    167  ND2       26.4080    0.2430   -3.0270 N.am  131  ASN131     -0.0877
@<TRIPOS>BOND
     1    42    43    2
     2    42    41    1
     3    44    41    1
     4    44    45    1
     5    40    41    1
     6    46    45   ar
     7    46    48   ar
     8    45    47   ar
     9    37    36    2
    10    30    31    1
    11    30    29    1
    12    48    50   ar
    13    47    49   ar
    14   163   162    2
    15    31    33   ar
    16    31    32   ar
    17   167   165   am
    18    36    35    1
    19    50    49   ar
    20    29    26    1
    21   162   161    1
    22    64    62    1
    23   140   138   ar
    24   140   141   ar
    25   131   132    1
    26   165   164    1
    27   165   166    2
    28   164   161    1
    29    35    34    1
    30    35    38    1
    31   138   136   ar
    32    26    27    1
    33    26    25    1
    34   142   141    1
    35    61    60    2
    36    65    63    1
    37   161   160    1
    38    28    27    2
    39    62    63    1
    40    62    59    1
    41   141   139   ar
    42    60    59    1
    43    25    19   am
    44    38    39    1
    45   132   135    1
    46   132   133    1
    47   136   135    1
    48   136   137   ar
    49   130   128    1
    50    67    68    1
    51    67    66    1
    52    67    70    1
    53   129   128    1
    54    20    19    2
    55    72    70    1
    56    19    18    1
    57    59    58    1
    58    21    22    1
    59    21    18    1
    60   128   127    2
    61   160   154   am
    62   134   133    2
    63    68    69    2
    64   139   137   ar
    65    71    70    1
    66   155   154    2
    67   158   157   ar
    68    23    22   ar
    69    22    24   ar
    70   127   126    1
    71   154   153    1
    72    18    17    1
    73   126   125    1
    74    84    81    1
    75    54    53    2
    76    83    82    2
    77     7     6    2
    78   157   156    1
    79   157   159   ar
    80   119   118    1
    81    97    96    1
    82   151   150    1
    83    17    11   am
    84   156   153    1
    85    82    81    1
    86    82    85   am
    87   153   152    1
    88   118   116   ar
    89   118   117   ar
    90   116   114   ar
    91    55    56    1
    92    55    57    1
    93    55    52    1
    94   125   124    1
    95    53    52    1
    96    81    80    1
    97    96    98    1
    98    96    95    1
    99   117   115   ar
   100    86    89    1
   101    86    85    1
   102    86    87    1
   103   107   106    1
   104    89    90    1
   105     6     8   am
   106     6     5    1
   107   114   113   ar
   108    12    11    2
   109   115   113   ar
   110   106   105    1
   111    51    52    1
   112   113   112    1
   113    11    10    1
   114    80    75   am
   115   143   144    1
   116    91    87   am
   117    91    92    1
   118   150   149    1
   119   149   148    1
   120   112   109    1
   121    87    88    2
   122    95    92    1
   123   124   121    1
   124     5     2    1
   125    78    77    1
   126    92    93    1
   127   105   104    1
   128    10     9    1
   129    10    13    1
   130    75    74    1
   131    75    76    2
   132     9     3   am
   133   121   122    1
   134   121   120    1
   135   123   122    2
   136   144   147    1
   137   144   145    1
   138   104   103    1
   139    14    13    1
   140    14    16    1
   141    14    15    1
   142   148   147    1
   143   109   108    1
   144   109   110    1
   145     3     2    1
   146     3     4    2
   147     2     1    1
   148    74    77    1
   149    74    73    1
   150   146   145    2
   151    77    79    1
   152    94    93    2
   153   108   101   am
   154   110   111    2
   155   102   101    2
   156   101   100    1
   157   103   100    1
   158   100    99    1
