@<TRIPOS>MOLECULE
tmp/2ghqB00.pdb
 229 221 0 0 0
SMALL
GASTEIGER

@<TRIPOS>ATOM
      1  N         -3.1070  -29.5280  -18.5400 N.3    20  ASN20      -0.1225
      2  CA        -1.8370  -29.8150  -19.1750 C.3    20  ASN20       0.1785
      3  C         -0.7170  -29.8480  -18.1130 C.2    20  ASN20       0.2597
      4  O         -0.8760  -29.3310  -17.0010 O.2    20  ASN20      -0.2718
      5  CB        -1.5350  -28.7080  -20.1760 C.3    20  ASN20       0.1169
      6  CG        -0.3900  -29.0440  -21.0600 C.2    20  ASN20       0.2627
      7  OD1        0.6160  -28.3250  -21.1010 O.2    20  ASN20      -0.2716
      8  ND2       -0.5140  -30.0670  -21.7580 N.am   20  ASN20      -0.0877
      9  N          0.4240  -30.4460  -18.4570 N.am   21  LEU21      -0.1966
     10  CA         1.5380  -30.5100  -17.5120 C.3    21  LEU21       0.1728
     11  C          2.6990  -29.5580  -17.7510 C.2    21  LEU21       0.2616
     12  O          2.9070  -28.5910  -16.9860 O.2    21  LEU21      -0.2715
     13  CB         2.0890  -31.9390  -17.4510 C.3    21  LEU21       0.0311
     14  CG         3.2990  -32.1780  -16.5340 C.3    21  LEU21       0.0022
     15  CD1        2.9540  -31.7760  -15.0900 C.3    21  LEU21       0.0001
     16  CD2        3.7180  -33.6490  -16.6150 C.3    21  LEU21       0.0001
     17  N          3.4710  -29.8240  -18.8000 N.am   22  ASP22      -0.1957
     18  CA         4.6710  -29.0160  -19.0790 C.3    22  ASP22       0.1840
     19  C          4.4230  -27.6180  -19.5840 C.2    22  ASP22       0.2621
     20  O          3.6700  -27.4430  -20.5070 O.2    22  ASP22      -0.2715
     21  CB         5.5920  -29.7540  -20.0500 C.3    22  ASP22       0.1450
     22  CG         6.1860  -31.0100  -19.4410 C.2    22  ASP22       0.3671
     23  OD1        6.6290  -30.9620  -18.2680 O.co2  22  ASP22      -0.2456
     24  OD2        6.2270  -32.0520  -20.1380 O.co2  22  ASP22      -0.2456
     25  N          5.0870  -26.6340  -18.9840 N.am   23  GLU23      -0.1977
     26  CA         4.9250  -25.2310  -19.3480 C.3    23  GLU23       0.1602
     27  C          3.6100  -24.6790  -18.7980 C.2    23  GLU23       0.2287
     28  O          3.3270  -23.4840  -18.9400 O.2    23  GLU23      -0.2864
     29  CB         5.0120  -25.0340  -20.8760 C.3    23  GLU23       0.0415
     30  CG         6.4140  -25.2030  -21.4320 C.3    23  GLU23       0.1163
     31  CD         6.9140  -26.6620  -21.4460 C.2    23  GLU23       0.3649
     32  OE1        6.5050  -27.4160  -22.3600 O.co2  23  GLU23      -0.2457
     33  OE2        7.7240  -27.0620  -20.5590 O.co2  23  GLU23      -0.2457
     34  N         10.3040  -28.8680  -17.1410 N.3    28  SER28      -0.1202
     35  CA        11.3460  -29.8710  -16.9480 C.3    28  SER28       0.2020
     36  C         12.3710  -29.7840  -18.0350 C.2    28  SER28       0.2619
     37  O         12.0740  -29.3490  -19.1410 O.2    28  SER28      -0.2717
     38  CB        10.7340  -31.2630  -16.9360 C.3    28  SER28       0.2103
     39  OG         9.7380  -31.3370  -15.9320 O.3    28  SER28      -0.2182
     40  N         13.5850  -30.2140  -17.7320 N.am   29  SER29      -0.1937
     41  CA        14.6670  -30.1420  -18.6970 C.3    29  SER29       0.2055
     42  C         15.7360  -31.1790  -18.3630 C.2    29  SER29       0.2643
     43  O         15.8140  -31.6350  -17.2270 O.2    29  SER29      -0.2714
     44  CB        15.2630  -28.7370  -18.6350 C.3    29  SER29       0.2130
     45  OG        16.4520  -28.6520  -19.3930 O.3    29  SER29      -0.2179
     46  N         16.5120  -31.5880  -19.3670 N.am   30  PHE30      -0.1973
     47  CA        17.5990  -32.5340  -19.1560 C.3    30  PHE30       0.1639
     48  C         18.8040  -31.7060  -18.7180 C.2    30  PHE30       0.2290
     49  O         19.7960  -32.2340  -18.2210 O.2    30  PHE30      -0.2864
     50  CB        17.9550  -33.2570  -20.4580 C.3    30  PHE30       0.0560
     51  CG        17.1010  -34.4600  -20.7540 C.ar   30  PHE30      -0.0200
     52  CD1       16.9960  -35.4860  -19.8330 C.ar   30  PHE30      -0.0042
     53  CD2       16.4570  -34.5980  -21.9780 C.ar   30  PHE30      -0.0042
     54  CE1       16.2660  -36.6430  -20.1130 C.ar   30  PHE30      -0.0003
     55  CE2       15.7170  -35.7660  -22.2730 C.ar   30  PHE30      -0.0003
     56  CZ        15.6260  -36.7960  -21.3230 C.ar   30  PHE30      -0.0000
     57  N         14.9400  -40.7530  -15.7690 N.3    42  VAL42      -0.1231
     58  CA        14.1380  -41.3300  -16.8400 C.3    42  VAL42       0.1692
     59  C         15.0240  -42.2160  -17.7000 C.2    42  VAL42       0.2592
     60  O         16.0530  -41.7740  -18.2190 O.2    42  VAL42      -0.2718
     61  CB        13.4840  -40.2220  -17.7090 C.3    42  VAL42       0.0266
     62  CG1       12.6620  -40.8530  -18.8400 C.3    42  VAL42       0.0020
     63  CG2       12.5800  -39.3410  -16.8300 C.3    42  VAL42       0.0020
     64  N         14.6190  -43.4720  -17.8430 N.am   43  GLU43      -0.1966
     65  CA        15.3980  -44.4010  -18.6460 C.3    43  GLU43       0.1733
     66  C         14.9930  -44.3360  -20.1050 C.2    43  GLU43       0.2616
     67  O         13.8190  -44.4580  -20.4460 O.2    43  GLU43      -0.2715
     68  CB        15.2320  -45.8300  -18.1430 C.3    43  GLU43       0.0429
     69  CG        16.1840  -46.7990  -18.8020 C.3    43  GLU43       0.1163
     70  CD        15.8300  -48.2380  -18.5220 C.2    43  GLU43       0.3649
     71  OE1       14.7690  -48.6940  -19.0080 O.co2  43  GLU43      -0.2457
     72  OE2       16.6100  -48.9080  -17.8050 O.co2  43  GLU43      -0.2457
     73  N         15.9760  -44.1260  -20.9670 N.am   44  ILE44      -0.1963
     74  CA        15.7230  -44.0520  -22.3930 C.3    44  ILE44       0.1727
     75  C         16.8450  -44.8250  -23.0970 C.2    44  ILE44       0.2616
     76  O         18.0370  -44.5480  -22.8800 O.2    44  ILE44      -0.2715
     77  CB        15.6920  -42.5810  -22.8610 C.3    44  ILE44       0.0290
     78  CG1       14.6090  -41.8170  -22.0780 C.3    44  ILE44       0.0022
     79  CG2       15.4270  -42.5220  -24.3550 C.3    44  ILE44       0.0023
     80  CD1       14.6090  -40.3070  -22.3060 C.3    44  ILE44       0.0001
     81  N         16.4620  -45.8010  -23.9220 N.am   45  ASP45      -0.1971
     82  CA        17.4400  -46.6290  -24.6310 C.3    45  ASP45       0.1709
     83  C         18.3260  -47.3140  -23.5600 C.2    45  ASP45       0.2293
     84  O         19.5540  -47.4510  -23.7380 O.2    45  ASP45      -0.2864
     85  CB        18.3910  -45.7790  -25.4930 C.3    45  ASP45       0.1436
     86  CG        17.8060  -45.3520  -26.8410 C.2    45  ASP45       0.3671
     87  OD1       16.6320  -45.6560  -27.1510 O.co2  45  ASP45      -0.2456
     88  OD2       18.5770  -44.6830  -27.5400 O.co2  45  ASP45      -0.2456
     89  N         18.6670  -41.0080  -17.5360 N.3    49  HIS49      -0.1241
     90  CA        18.9810  -39.5780  -17.6080 C.3    49  HIS49       0.1621
     91  C         18.1780  -38.8610  -16.5210 C.2    49  HIS49       0.2264
     92  O         17.0420  -39.2510  -16.2140 O.2    49  HIS49      -0.2867
     93  CB        18.6000  -39.0110  -18.9820 C.3    49  HIS49       0.0745
     94  CG        19.3390  -39.6430  -20.1190 C.ar   49  HIS49       0.0817
     95  ND1       20.6620  -39.3600  -20.3940 N.ar   49  HIS49      -0.2268
     96  CD2       18.9510  -40.5670  -21.0300 C.ar   49  HIS49       0.1154
     97  CE1       21.0540  -40.0850  -21.4280 C.ar   49  HIS49       0.1986
     98  NE2       20.0340  -40.8250  -21.8320 N.ar   49  HIS49      -0.2212
     99  N         15.9820  -35.8490  -15.1390 N.3    51  VAL51      -0.1245
    100  CA        15.1050  -34.7680  -15.6270 C.3    51  VAL51       0.1561
    101  C         14.8500  -33.7950  -14.4580 C.2    51  VAL51       0.2260
    102  O         14.2620  -34.1550  -13.4360 O.2    51  VAL51      -0.2867
    103  CB        13.7420  -35.3220  -16.1390 C.3    51  VAL51       0.0252
    104  CG1       12.8220  -34.1570  -16.5610 C.3    51  VAL51       0.0019
    105  CG2       13.9830  -36.2650  -17.3410 C.3    51  VAL51       0.0019
    106  N         -1.5660  -34.8190  -21.0730 N.3    76  THR76      -0.1203
    107  CA        -0.2810  -34.3360  -21.5420 C.3    76  THR76       0.1994
    108  C          0.2250  -35.0290  -22.8070 C.2    76  THR76       0.2618
    109  O         -0.1250  -36.1850  -23.1080 O.2    76  THR76      -0.2717
    110  CB         0.8130  -34.5550  -20.4270 C.3    76  THR76       0.1784
    111  OG1        2.0820  -34.0930  -20.8880 O.3    76  THR76      -0.2211
    112  CG2        0.9720  -36.0460  -20.1330 C.3    76  THR76       0.0376
    113  N          1.0890  -34.3270  -23.5410 N.am   77  ALA77      -0.1965
    114  CA         1.6690  -34.9070  -24.7480 C.3    77  ALA77       0.1728
    115  C          3.0180  -35.5440  -24.3700 C.2    77  ALA77       0.2617
    116  O          3.7930  -35.9680  -25.2220 O.2    77  ALA77      -0.2715
    117  CB         1.8490  -33.8300  -25.8200 C.3    77  ALA77       0.0334
    118  N          3.2980  -35.6120  -23.0740 N.am   78  SER78      -0.1936
    119  CA         4.5340  -36.2190  -22.6090 C.3    78  SER78       0.2055
    120  C          4.3700  -37.7390  -22.5170 C.2    78  SER78       0.2642
    121  O          3.3240  -38.2790  -22.7950 O.2    78  SER78      -0.2714
    122  CB         4.8610  -35.7350  -21.1830 C.3    78  SER78       0.2130
    123  OG         4.9940  -34.3360  -21.1600 O.3    78  SER78      -0.2179
    124  N          5.4190  -38.4310  -22.1180 N.am   79  LEU79      -0.1977
    125  CA         5.3400  -39.8760  -21.9850 C.3    79  LEU79       0.1596
    126  C          5.1410  -40.1860  -20.5090 C.2    79  LEU79       0.2287
    127  O          5.6780  -39.4940  -19.6430 O.2    79  LEU79      -0.2864
    128  CB         6.6400  -40.5060  -22.4770 C.3    79  LEU79       0.0297
    129  CG         6.9300  -40.2760  -23.9590 C.3    79  LEU79       0.0022
    130  CD1        8.2510  -40.9270  -24.3160 C.3    79  LEU79       0.0001
    131  CD2        5.7910  -40.8490  -24.7940 C.3    79  LEU79       0.0001
    132  N          6.3900  -42.4030  -18.6110 N.3    81  LYS81      -0.1231
    133  CA         7.6300  -42.6670  -17.8810 C.3    81  LYS81       0.1693
    134  C          8.1600  -41.3970  -17.2270 C.2    81  LYS81       0.2592
    135  O          8.9020  -41.4560  -16.2690 O.2    81  LYS81      -0.2718
    136  CB         8.7010  -43.2480  -18.8040 C.3    81  LYS81       0.0285
    137  CG         9.0680  -42.3550  -19.9870 C.3    81  LYS81       0.0035
    138  CD        10.3110  -42.8720  -20.7300 C.3    81  LYS81       0.0206
    139  CE        10.1160  -44.3460  -21.0310 C.3    81  LYS81       0.1093
    140  NZ        11.3580  -45.0640  -21.3880 N.3    81  LYS81      -0.1314
    141  N          7.7810  -40.2510  -17.7630 N.am   82  TYR82      -0.1976
    142  CA         8.1970  -38.9850  -17.1860 C.3    82  TYR82       0.1639
    143  C          7.0260  -38.4070  -16.3760 C.2    82  TYR82       0.2290
    144  O          7.1650  -38.0770  -15.1790 O.2    82  TYR82      -0.2864
    145  CB         8.6150  -38.0250  -18.2980 C.3    82  TYR82       0.0560
    146  CG         8.4160  -36.5590  -17.9650 C.ar   82  TYR82      -0.0198
    147  CD1        9.2460  -35.9110  -17.0430 C.ar   82  TYR82      -0.0009
    148  CD2        7.3670  -35.8310  -18.5310 C.ar   82  TYR82      -0.0009
    149  CE1        9.0410  -34.5650  -16.6840 C.ar   82  TYR82       0.0417
    150  CE2        7.1360  -34.4910  -18.1850 C.ar   82  TYR82       0.0417
    151  CZ         7.9780  -33.8730  -17.2580 C.ar   82  TYR82       0.1957
    152  OH         7.7300  -32.5900  -16.8710 O.3    82  TYR82      -0.2866
    153  N          0.7310  -38.8900  -24.1920 N.3   102  ARG102     -0.1245
    154  CA         0.9240  -38.6550  -25.6100 C.3   102  ARG102      0.1563
    155  C          0.0640  -39.5510  -26.5170 C.2   102  ARG102      0.2260
    156  O         -0.5780  -39.0520  -27.4450 O.2   102  ARG102     -0.2867
    157  CB         2.4090  -38.8070  -25.9590 C.3   102  ARG102      0.0307
    158  CG         2.7500  -38.4450  -27.3990 C.3   102  ARG102      0.0489
    159  CD         4.2130  -38.6080  -27.6620 C.3   102  ARG102      0.2205
    160  NE         4.9940  -37.6750  -26.8660 N.pl3 102  ARG102     -0.0865
    161  CZ         6.3200  -37.6460  -26.8370 C.cat 102  ARG102      0.5346
    162  NH1        7.0290  -38.4980  -27.5690 N.pl3 102  ARG102      0.1354
    163  NH2        6.9410  -36.7540  -26.0710 N.pl3 102  ARG102      0.1354
    164  N          1.3280  -31.9250  -37.4000 N.3   110  GLY110     -0.1210
    165  CA         2.5150  -31.6230  -36.6120 C.3   110  GLY110      0.1956
    166  C          2.3120  -31.2370  -35.1610 C.2   110  GLY110      0.2612
    167  O          3.3000  -30.9820  -34.4600 O.2   110  GLY110     -0.2717
    168  N          1.0560  -31.1600  -34.7130 N.am  111  ASN111     -0.1960
    169  CA         0.7670  -30.8090  -33.3230 C.3   111  ASN111      0.1819
    170  C         -0.0230  -31.9150  -32.6250 C.2   111  ASN111      0.2621
    171  O         -0.8100  -32.6360  -33.2670 O.2   111  ASN111     -0.2715
    172  CB        -0.0370  -29.5110  -33.1900 C.3   111  ASN111      0.1195
    173  CG         0.6930  -28.2920  -33.7300 C.2   111  ASN111      0.2630
    174  OD1        0.1900  -27.6490  -34.6570 O.2   111  ASN111     -0.2716
    175  ND2        1.7640  -27.9760  -33.2190 N.am  111  ASN111     -0.0877
    176  N          0.2000  -32.0500  -31.3140 N.am  112  TYR112     -0.1974
    177  CA        -0.5120  -33.0290  -30.5030 C.3   112  TYR112      0.1639
    178  C         -1.7660  -32.3620  -29.9790 C.2   112  TYR112      0.2290
    179  O         -1.7100  -31.4500  -29.1540 O.2   112  TYR112     -0.2864
    180  CB         0.3510  -33.5010  -29.3360 C.3   112  TYR112      0.0560
    181  CG         1.4960  -34.3640  -29.7700 C.ar  112  TYR112     -0.0198
    182  CD1        1.3240  -35.7350  -29.9950 C.ar  112  TYR112     -0.0009
    183  CD2        2.7680  -33.8120  -29.9690 C.ar  112  TYR112     -0.0009
    184  CE1        2.3970  -36.5580  -30.3960 C.ar  112  TYR112      0.0417
    185  CE2        3.8560  -34.6160  -30.3900 C.ar  112  TYR112      0.0417
    186  CZ         3.6420  -35.9860  -30.5890 C.ar  112  TYR112      0.1957
    187  OH         4.6950  -36.7770  -30.9580 O.3   112  TYR112     -0.2866
    188  N         -5.4690  -32.3720  -28.0450 N.3   114  LYS114     -0.1245
    189  CA        -6.2450  -33.0460  -27.0160 C.3   114  LYS114      0.1561
    190  C         -7.6770  -33.0260  -27.5340 C.2   114  LYS114      0.2260
    191  O         -8.3720  -32.0290  -27.4100 O.2   114  LYS114     -0.2867
    192  CB        -6.1630  -32.2940  -25.6800 C.3   114  LYS114      0.0271
    193  CG        -4.8930  -32.5330  -24.8920 C.3   114  LYS114      0.0035
    194  CD        -3.6950  -31.7930  -25.4390 C.3   114  LYS114      0.0206
    195  CE        -2.4340  -32.1640  -24.6520 C.3   114  LYS114      0.1093
    196  NZ        -1.3310  -31.1620  -24.8220 N.3   114  LYS114     -0.1314
    197  N         -4.4900  -25.3440  -21.0630 N.3   130  ASP130     -0.1225
    198  CA        -3.2260  -25.7190  -21.6840 C.3   130  ASP130      0.1805
    199  C         -2.4750  -24.4560  -22.1050 C.2   130  ASP130      0.2598
    200  O         -3.0930  -23.4090  -22.3660 O.2   130  ASP130     -0.2718
    201  CB        -3.5090  -26.6090  -22.8990 C.3   130  ASP130      0.1424
    202  CG        -2.3040  -27.4110  -23.3470 C.2   130  ASP130      0.3668
    203  OD1       -1.2960  -26.8170  -23.7970 O.co2 130  ASP130     -0.2456
    204  OD2       -2.3720  -28.6580  -23.2540 O.co2 130  ASP130     -0.2456
    205  N         -1.1550  -24.5550  -22.1850 N.am  131  ASN131     -0.1960
    206  CA        -0.3560  -23.4000  -22.6000 C.3   131  ASN131      0.1819
    207  C         -0.2110  -23.2860  -24.1140 C.2   131  ASN131      0.2622
    208  O          0.2010  -22.2300  -24.5990 O.2   131  ASN131     -0.2715
    209  CB         1.0530  -23.4490  -22.0150 C.3   131  ASN131      0.1195
    210  CG         1.7850  -24.7120  -22.3920 C.2   131  ASN131      0.2630
    211  OD1        1.4320  -25.7990  -21.9540 O.2   131  ASN131     -0.2716
    212  ND2        2.8010  -24.5730  -23.2120 N.am  131  ASN131     -0.0877
    213  N         -0.4890  -24.3740  -24.8420 N.am  132  SER132     -0.1950
    214  CA        -0.3710  -24.3650  -26.3050 C.3   132  SER132      0.1924
    215  C         -1.7120  -24.3270  -26.9930 C.2   132  SER132      0.2314
    216  O         -2.4670  -25.2970  -26.9510 O.2   132  SER132     -0.2863
    217  CB         0.3380  -25.6090  -26.8090 C.3   132  SER132      0.2116
    218  OG         1.6750  -25.6200  -26.3630 O.3   132  SER132     -0.2180
    219  N         -2.4680  -24.7470  -29.8940 N.3   134  ALA134     -0.1231
    220  CA        -2.5780  -25.8470  -30.8330 C.3   134  ALA134      0.1694
    221  C         -3.2180  -27.0800  -30.1970 C.2   134  ALA134      0.2592
    222  O         -3.8720  -27.8740  -30.8850 O.2   134  ALA134     -0.2718
    223  CB        -1.1940  -26.1920  -31.3950 C.3   134  ALA134      0.0304
    224  N         -3.0540  -27.2160  -28.8780 N.am  135  SER135     -0.1952
    225  CA        -3.5880  -28.3590  -28.1370 C.3   135  SER135      0.1924
    226  C         -5.1010  -28.4700  -28.1670 C.2   135  SER135      0.2314
    227  O         -5.6510  -29.5700  -28.0990 O.2   135  SER135     -0.2863
    228  CB        -3.1300  -28.3030  -26.6740 C.3   135  SER135      0.2116
    229  OG        -1.7170  -28.3210  -26.5910 O.3   135  SER135     -0.2180
@<TRIPOS>BOND
     1   164   165    1
     2   165   166    1
     3   166   168   am
     4   166   167    2
     5   168   169    1
     6   174   173    2
     7   173   175   am
     8   173   172    1
     9   169   172    1
    10   169   170    1
    11   171   170    2
    12   170   176   am
    13   223   220    1
    14   176   177    1
    15   187   186    1
    16   222   221    2
    17   220   221    1
    18   220   219    1
    19   186   184   ar
    20   186   185   ar
    21   177   178    1
    22   177   180    1
    23   184   182   ar
    24   185   183   ar
    25   221   224   am
    26   182   181   ar
    27   178   179    2
    28   183   181   ar
    29   181   180    1
    30   224   225    1
    31   226   225    1
    32   226   227    2
    33   225   228    1
    34   188   189    1
    35   159   158    1
    36   159   160    1
    37   162   161    1
    38    88    86   ar
    39   190   191    2
    40   190   189    1
    41   156   155    2
    42   158   157    1
    43    87    86   ar
    44   189   192    1
    45   215   216    2
    46   215   214    1
    47   160   161    2
    48    86    85    1
    49   161   163    1
    50   217   218    1
    51   217   214    1
    52   228   229    1
    53   155   154    1
    54   214   213    1
    55   157   154    1
    56   117   114    1
    57   192   193    1
    58   154   153    1
    59    85    82    1
    60   194   193    1
    61   194   195    1
    62   116   115    2
    63   213   207   am
    64   196   195    1
    65   131   129    1
    66   114   115    1
    67   114   113    1
    68    82    81    1
    69    82    83    1
    70   208   207    2
    71   115   118   am
    72    79    77    1
    73   130   129    1
    74   207   206    1
    75   129   128    1
    76    81    75   am
    77   203   202   ar
    78    84    83    2
    79   113   108   am
    80   202   204   ar
    81   202   201    1
    82   212   210   am
    83   109   108    2
    84    75    76    2
    85    75    74    1
    86   118   119    1
    87   201   198    1
    88    77    74    1
    89    77    78    1
    90   108   107    1
    91   121   120    2
    92   119   120    1
    93   119   122    1
    94   206   205    1
    95   206   209    1
    96   120   124   am
    97   128   125    1
    98    74    73    1
    99   210   209    1
   100   210   211    2
   101   200   199    2
   102    32    31   ar
   103    80    78    1
   104    55    53   ar
   105    55    56   ar
   106   205   199   am
   107   124   125    1
   108   199   198    1
   109   125   126    1
   110    53    51   ar
   111    98    97   ar
   112    98    96   ar
   113     8     6   am
   114   198   197    1
   115   107   106    1
   116   107   110    1
   117    31    30    1
   118    31    33   ar
   119    30    29    1
   120    97    95   ar
   121   140   139    1
   122    56    54   ar
   123   122   123    1
   124     7     6    2
   125     6     5    1
   126   139   138    1
   127    96    94   ar
   128    73    66   am
   129   111   110    1
   130    29    26    1
   131    51    50    1
   132    51    52   ar
   133   138   137    1
   134   126   127    2
   135    20    19    2
   136    50    47    1
   137    67    66    2
   138   110   112    1
   139    95    94   ar
   140     5     2    1
   141    24    22   ar
   142    94    93    1
   143    54    52   ar
   144    66    65    1
   145    21    22    1
   146    21    18    1
   147   137   136    1
   148    19    18    1
   149    19    25   am
   150    22    23   ar
   151    45    44    1
   152    46    47    1
   153    46    42   am
   154    26    25    1
   155    26    27    1
   156     2     1    1
   157     2     3    1
   158    47    48    1
   159    37    36    2
   160    18    17    1
   161    71    70   ar
   162    93    90    1
   163    28    27    2
   164    62    61    1
   165   136   133    1
   166    69    70    1
   167    69    68    1
   168    17    11   am
   169    48    49    2
   170    41    44    1
   171    41    42    1
   172    41    40    1
   173    65    68    1
   174    65    64    1
   175   132   133    1
   176   148   150   ar
   177   148   146   ar
   178    70    72   ar
   179     9     3   am
   180     9    10    1
   181    42    43    2
   182   145   146    1
   183   145   142    1
   184    60    59    2
   185   150   151   ar
   186     3     4    2
   187    36    40   am
   188    36    35    1
   189   146   147   ar
   190   133   134    1
   191    64    59   am
   192   141   134   am
   193   141   142    1
   194    11    10    1
   195    11    12    2
   196    61    58    1
   197    61    63    1
   198    59    58    1
   199    90    89    1
   200    90    91    1
   201    10    13    1
   202    13    14    1
   203   105   103    1
   204   151   152    1
   205   151   149   ar
   206   134   135    2
   207   142   143    1
   208    34    35    1
   209   147   149   ar
   210    35    38    1
   211    38    39    1
   212    58    57    1
   213    16    14    1
   214   104   103    1
   215    14    15    1
   216    91    92    2
   217   143   144    2
   218   103   100    1
   219   100    99    1
   220   100   101    1
   221   101   102    2
