@<TRIPOS>MOLECULE
tmp/2ghtB00.pdb
 219 211 0 0 0
SMALL
GASTEIGER

@<TRIPOS>ATOM
      1  N         59.9180    9.7270  -18.5110 N.3    20  ASN20      -0.1225
      2  CA        61.1920    9.4020  -19.1160 C.3    20  ASN20       0.1785
      3  C         62.3100    9.4280  -18.0710 C.2    20  ASN20       0.2597
      4  O         62.1410    9.9850  -16.9970 O.2    20  ASN20      -0.2718
      5  CB        61.4730   10.4210  -20.2160 C.3    20  ASN20       0.1169
      6  CG        62.6670   10.0750  -21.0430 C.2    20  ASN20       0.2627
      7  OD1       63.6650   10.7770  -20.9980 O.2    20  ASN20      -0.2716
      8  ND2       62.5680    8.9910  -21.8060 N.am   20  ASN20      -0.0877
      9  N         63.4610    8.8380  -18.3970 N.am   21  LEU21      -0.1966
     10  CA        64.5700    8.7900  -17.4400 C.3    21  LEU21       0.1728
     11  C         65.7210    9.7590  -17.7010 C.2    21  LEU21       0.2616
     12  O         65.8850   10.7630  -16.9940 O.2    21  LEU21      -0.2715
     13  CB        65.1300    7.3570  -17.3640 C.3    21  LEU21       0.0311
     14  CG        66.2700    7.1430  -16.3640 C.3    21  LEU21       0.0022
     15  CD1       65.8140    7.5100  -14.9490 C.3    21  LEU21       0.0001
     16  CD2       66.7210    5.6780  -16.4310 C.3    21  LEU21       0.0001
     17  N         66.5210    9.4620  -18.7230 N.am   22  ASP22      -0.1957
     18  CA        67.6910   10.2920  -19.0180 C.3    22  ASP22       0.1840
     19  C         67.3740   11.6910  -19.5060 C.2    22  ASP22       0.2621
     20  O         66.5660   11.8790  -20.4150 O.2    22  ASP22      -0.2715
     21  CB        68.5960    9.5850  -20.0250 C.3    22  ASP22       0.1450
     22  CG        69.1070    8.2510  -19.4980 C.2    22  ASP22       0.3671
     23  OD1       69.4410    8.1890  -18.2870 O.co2  22  ASP22      -0.2456
     24  OD2       69.1770    7.2880  -20.2940 O.co2  22  ASP22      -0.2456
     25  N         68.0350   12.6600  -18.8810 N.am   23  GLU23      -0.1977
     26  CA        67.8780   14.0750  -19.1800 C.3    23  GLU23       0.1602
     27  C         66.5530   14.6230  -18.6590 C.2    23  GLU23       0.2287
     28  O         66.2420   15.7950  -18.8350 O.2    23  GLU23      -0.2864
     29  CB        68.0280   14.3330  -20.6880 C.3    23  GLU23       0.0415
     30  CG        69.4470   14.1330  -21.2150 C.3    23  GLU23       0.1163
     31  CD        69.9140   12.6770  -21.2700 C.2    23  GLU23       0.3649
     32  OE1       69.3310   11.8980  -22.0450 O.co2  23  GLU23      -0.2457
     33  OE2       70.8720   12.2980  -20.5520 O.co2  23  GLU23      -0.2457
     34  N         73.1320   10.4780  -17.0840 N.3    28  SER28      -0.1202
     35  CA        74.1740    9.4630  -16.9270 C.3    28  SER28       0.2020
     36  C         75.2030    9.5340  -18.0410 C.2    28  SER28       0.2619
     37  O         74.8860    9.8920  -19.1770 O.2    28  SER28      -0.2717
     38  CB        73.5430    8.0750  -16.8990 C.3    28  SER28       0.2103
     39  OG        72.5550    7.9850  -15.8840 O.3    28  SER28      -0.2182
     40  N         76.4460    9.2320  -17.6960 N.am   29  SER29      -0.1937
     41  CA        77.5080    9.2690  -18.6820 C.3    29  SER29       0.2055
     42  C         78.5940    8.2600  -18.3740 C.2    29  SER29       0.2643
     43  O         78.7270    7.7830  -17.2430 O.2    29  SER29      -0.2714
     44  CB        78.1190   10.6690  -18.7670 C.3    29  SER29       0.2130
     45  OG        78.7350   11.0220  -17.5390 O.3    29  SER29      -0.2179
     46  N         79.3610    7.9170  -19.4020 N.am   30  PHE30      -0.1973
     47  CA        80.4520    6.9790  -19.2460 C.3    30  PHE30       0.1639
     48  C         81.6850    7.7470  -18.8380 C.2    30  PHE30       0.2290
     49  O         82.6800    7.1590  -18.4120 O.2    30  PHE30      -0.2864
     50  CB        80.7030    6.2260  -20.5530 C.3    30  PHE30       0.0560
     51  CG        79.6870    5.1670  -20.8250 C.ar   30  PHE30      -0.0200
     52  CD1       78.4160    5.5070  -21.2810 C.ar   30  PHE30      -0.0042
     53  CD2       79.9810    3.8350  -20.5770 C.ar   30  PHE30      -0.0042
     54  CE1       77.4480    4.5240  -21.4880 C.ar   30  PHE30      -0.0003
     55  CE2       79.0270    2.8390  -20.7780 C.ar   30  PHE30      -0.0003
     56  CZ        77.7550    3.1840  -21.2360 C.ar   30  PHE30      -0.0000
     57  N         77.8420   -1.5580  -15.8270 N.3    42  VAL42      -0.1231
     58  CA        77.0540   -2.1290  -16.9120 C.3    42  VAL42       0.1692
     59  C         77.9450   -2.9610  -17.8210 C.2    42  VAL42       0.2592
     60  O         78.9430   -2.4610  -18.3490 O.2    42  VAL42      -0.2718
     61  CB        76.3720   -1.0270  -17.7410 C.3    42  VAL42       0.0266
     62  CG1       75.5160   -1.6600  -18.8390 C.3    42  VAL42       0.0020
     63  CG2       75.4750   -0.1810  -16.8340 C.3    42  VAL42       0.0020
     64  N         77.6080   -4.2390  -17.9650 N.am   43  GLU43      -0.1966
     65  CA        78.3990   -5.1290  -18.8010 C.3    43  GLU43       0.1733
     66  C         77.9800   -5.0580  -20.2520 C.2    43  GLU43       0.2616
     67  O         76.8150   -5.2550  -20.5850 O.2    43  GLU43      -0.2715
     68  CB        78.2900   -6.5740  -18.3130 C.3    43  GLU43       0.0429
     69  CG        79.3130   -7.5000  -18.9540 C.3    43  GLU43       0.1163
     70  CD        79.2340   -8.9140  -18.4250 C.2    43  GLU43       0.3649
     71  OE1       79.0800   -9.0870  -17.1950 O.co2  43  GLU43      -0.2457
     72  OE2       79.3380   -9.8560  -19.2380 O.co2  43  GLU43      -0.2457
     73  N         78.9480   -4.7560  -21.1080 N.am   44  ILE44      -0.1963
     74  CA        78.7320   -4.6760  -22.5450 C.3    44  ILE44       0.1727
     75  C         79.8600   -5.4630  -23.2140 C.2    44  ILE44       0.2616
     76  O         81.0400   -5.1670  -22.9980 O.2    44  ILE44      -0.2715
     77  CB        78.7580   -3.2070  -23.0190 C.3    44  ILE44       0.0290
     78  CG1       77.6880   -2.3990  -22.2700 C.3    44  ILE44       0.0022
     79  CG2       78.5060   -3.1350  -24.5110 C.3    44  ILE44       0.0023
     80  CD1       77.7890   -0.9020  -22.5010 C.3    44  ILE44       0.0001
     81  N         79.5020   -6.4610  -24.0180 N.am   45  ASP45      -0.1971
     82  CA        80.5080   -7.2830  -24.6940 C.3    45  ASP45       0.1709
     83  C         81.4390   -7.9240  -23.6650 C.2    45  ASP45       0.2293
     84  O         82.6540   -8.0020  -23.8710 O.2    45  ASP45      -0.2864
     85  CB        81.3510   -6.4480  -25.6620 C.3    45  ASP45       0.1436
     86  CG        80.5130   -5.6330  -26.6220 C.2    45  ASP45       0.3671
     87  OD1       79.5300   -6.1650  -27.1850 O.co2  45  ASP45      -0.2456
     88  OD2       80.8550   -4.4500  -26.8270 O.co2  45  ASP45      -0.2456
     89  N         78.9640    3.5410  -15.1710 N.3    51  VAL51      -0.1245
     90  CA        78.0540    4.5850  -15.6700 C.3    51  VAL51       0.1561
     91  C         77.8050    5.5060  -14.4660 C.2    51  VAL51       0.2260
     92  O         77.3010    5.0480  -13.4400 O.2    51  VAL51      -0.2867
     93  CB        76.7090    3.9800  -16.1420 C.3    51  VAL51       0.0252
     94  CG1       75.7160    5.1040  -16.5000 C.3    51  VAL51       0.0019
     95  CG2       76.9450    3.0800  -17.3630 C.3    51  VAL51       0.0019
     96  N         61.4040    4.4560  -21.0440 N.3    76  THR76      -0.1203
     97  CA        62.6800    5.0030  -21.5080 C.3    76  THR76       0.1994
     98  C         63.2400    4.2820  -22.7220 C.2    76  THR76       0.2618
     99  O         62.9390    3.1110  -22.9380 O.2    76  THR76      -0.2717
    100  CB        63.7400    4.8980  -20.3770 C.3    76  THR76       0.1784
    101  OG1       65.0280    5.2550  -20.8930 O.3    76  THR76      -0.2211
    102  CG2       63.8090    3.4690  -19.8470 C.3    76  THR76       0.0376
    103  N         64.0510    4.9990  -23.4950 N.am   77  ALA77      -0.1965
    104  CA        64.6950    4.4220  -24.6660 C.3    77  ALA77       0.1728
    105  C         66.0270    3.8080  -24.2310 C.2    77  ALA77       0.2617
    106  O         66.8350    3.3900  -25.0680 O.2    77  ALA77      -0.2715
    107  CB        64.9290    5.5030  -25.7350 C.3    77  ALA77       0.0334
    108  N         66.2680    3.7500  -22.9220 N.am   78  SER78      -0.1936
    109  CA        67.5130    3.1390  -22.4500 C.3    78  SER78       0.2055
    110  C         67.3190    1.6420  -22.3030 C.2    78  SER78       0.2642
    111  O         66.1980    1.1390  -22.3370 O.2    78  SER78      -0.2714
    112  CB        67.9350    3.7310  -21.0900 C.3    78  SER78       0.2130
    113  OG        67.0020    3.3700  -20.0900 O.3    78  SER78      -0.2179
    114  N         68.4250    0.9260  -22.1500 N.am   79  LEU79      -0.1977
    115  CA        68.3850   -0.5130  -21.9810 C.3    79  LEU79       0.1596
    116  C         68.1750   -0.8280  -20.5110 C.2    79  LEU79       0.2287
    117  O         68.6830   -0.1260  -19.6390 O.2    79  LEU79      -0.2864
    118  CB        69.6930   -1.1250  -22.4830 C.3    79  LEU79       0.0297
    119  CG        69.9270   -0.9450  -23.9840 C.3    79  LEU79       0.0022
    120  CD1       71.2940   -1.5170  -24.3640 C.3    79  LEU79       0.0001
    121  CD2       68.8190   -1.6640  -24.7500 C.3    79  LEU79       0.0001
    122  N         69.4220   -3.0950  -18.5590 N.3    81  LYS81      -0.1231
    123  CA        70.6370   -3.3840  -17.7840 C.3    81  LYS81       0.1693
    124  C         71.1300   -2.1420  -17.0430 C.2    81  LYS81       0.2592
    125  O         71.8030   -2.2490  -16.0160 O.2    81  LYS81      -0.2718
    126  CB        71.7540   -3.9180  -18.6980 C.3    81  LYS81       0.0285
    127  CG        72.0980   -3.0060  -19.8680 C.3    81  LYS81       0.0035
    128  CD        73.3030   -3.5140  -20.6840 C.3    81  LYS81       0.0206
    129  CE        73.1440   -4.9840  -20.9790 C.3    81  LYS81       0.1093
    130  NZ        74.0920   -5.4660  -22.0080 N.3    81  LYS81      -0.1314
    131  N         70.7900   -0.9760  -17.5790 N.am   82  TYR82      -0.1976
    132  CA        71.1540    0.3080  -16.9920 C.3    82  TYR82       0.1639
    133  C         70.0030    0.9010  -16.1770 C.2    82  TYR82       0.2290
    134  O         70.1510    1.1930  -14.9810 O.2    82  TYR82      -0.2864
    135  CB        71.5460    1.2850  -18.1030 C.3    82  TYR82       0.0560
    136  CG        71.3170    2.7430  -17.7520 C.ar   82  TYR82      -0.0198
    137  CD1       72.1350    3.3930  -16.8240 C.ar   82  TYR82      -0.0009
    138  CD2       70.2570    3.4590  -18.3150 C.ar   82  TYR82      -0.0009
    139  CE1       71.9010    4.7210  -16.4630 C.ar   82  TYR82       0.0417
    140  CE2       70.0140    4.7890  -17.9590 C.ar   82  TYR82       0.0417
    141  CZ        70.8440    5.4110  -17.0300 C.ar   82  TYR82       0.1957
    142  OH        70.6030    6.7160  -16.6650 O.3    82  TYR82      -0.2866
    143  N         63.8280    0.4240  -24.0690 N.3   102  ARG102     -0.1245
    144  CA        64.0040    0.6520  -25.5010 C.3   102  ARG102      0.1563
    145  C         63.1900   -0.2900  -26.3890 C.2   102  ARG102      0.2260
    146  O         62.5660    0.1510  -27.3520 O.2   102  ARG102     -0.2867
    147  CB        65.4820    0.5450  -25.8730 C.3   102  ARG102      0.0307
    148  CG        65.7830    0.9100  -27.3190 C.3   102  ARG102      0.0489
    149  CD        67.2670    0.8790  -27.5740 C.3   102  ARG102      0.2205
    150  NE        67.9830    1.8140  -26.7050 N.pl3 102  ARG102     -0.0865
    151  CZ        69.3000    1.8090  -26.5380 C.cat 102  ARG102      0.5346
    152  NH1       70.0450    0.9190  -27.1850 N.pl3 102  ARG102      0.1354
    153  NH2       69.8640    2.6770  -25.7100 N.pl3 102  ARG102      0.1354
    154  N         64.3230    7.3010  -37.3630 N.3   110  GLY110     -0.1210
    155  CA        65.5160    7.5890  -36.5850 C.3   110  GLY110      0.1956
    156  C         65.3310    8.0520  -35.1500 C.2   110  GLY110      0.2612
    157  O         66.3060    8.4090  -34.4850 O.2   110  GLY110     -0.2717
    158  N         64.0920    8.0510  -34.6700 N.am  111  ASN111     -0.1960
    159  CA        63.7900    8.4680  -33.3110 C.3   111  ASN111      0.1819
    160  C         63.0510    7.3620  -32.5670 C.2   111  ASN111      0.2621
    161  O         62.2820    6.6040  -33.1650 O.2   111  ASN111     -0.2715
    162  CB        62.9070    9.7200  -33.3090 C.3   111  ASN111      0.1195
    163  CG        63.6450   10.9670  -33.7530 C.2   111  ASN111      0.2630
    164  OD1       64.6630   11.3370  -33.1730 O.2   111  ASN111     -0.2716
    165  ND2       63.1190   11.6270  -34.7750 N.am  111  ASN111     -0.0877
    166  N         63.2960    7.2610  -31.2640 N.am  112  TYR112     -0.1974
    167  CA        62.5880    6.2970  -30.4350 C.3   112  TYR112      0.1639
    168  C         61.3280    6.9870  -29.9640 C.2   112  TYR112      0.2290
    169  O         61.3840    8.0080  -29.2660 O.2   112  TYR112     -0.2864
    170  CB        63.4400    5.8720  -29.2380 C.3   112  TYR112      0.0560
    171  CG        64.5850    4.9830  -29.6390 C.ar  112  TYR112     -0.0198
    172  CD1       64.3900    3.6210  -29.8780 C.ar  112  TYR112     -0.0009
    173  CD2       65.8570    5.5150  -29.8480 C.ar  112  TYR112     -0.0009
    174  CE1       65.4300    2.8080  -30.3190 C.ar  112  TYR112      0.0417
    175  CE2       66.9100    4.7100  -30.2980 C.ar  112  TYR112      0.0417
    176  CZ        66.6860    3.3580  -30.5320 C.ar  112  TYR112      0.1957
    177  OH        67.7080    2.5620  -30.9880 O.3   112  TYR112     -0.2866
    178  N         57.5930    6.9070  -28.0060 N.3   114  LYS114     -0.1245
    179  CA        56.8040    6.2460  -26.9830 C.3   114  LYS114      0.1561
    180  C         55.3730    6.2850  -27.5120 C.2   114  LYS114      0.2260
    181  O         54.6700    7.2900  -27.3570 O.2   114  LYS114     -0.2867
    182  CB        56.8860    7.0020  -25.6480 C.3   114  LYS114      0.0271
    183  CG        58.1690    6.7860  -24.8580 C.3   114  LYS114      0.0035
    184  CD        59.3590    7.5210  -25.4300 C.3   114  LYS114      0.0206
    185  CE        60.6080    7.2800  -24.5750 C.3   114  LYS114      0.1093
    186  NZ        61.7380    8.1730  -24.9750 N.3   114  LYS114     -0.1314
    187  N         58.5450   13.9700  -21.0100 N.3   130  ASP130     -0.1225
    188  CA        59.7900   13.5840  -21.6650 C.3   130  ASP130      0.1805
    189  C         60.5160   14.8530  -22.1280 C.2   130  ASP130      0.2598
    190  O         59.8860   15.8480  -22.5170 O.2   130  ASP130     -0.2718
    191  CB        59.4390   12.6870  -22.8650 C.3   130  ASP130      0.1424
    192  CG        60.6020   11.8290  -23.3350 C.2   130  ASP130      0.3668
    193  OD1       61.6760   12.3880  -23.6120 O.co2 130  ASP130     -0.2456
    194  OD2       60.4300   10.5940  -23.4370 O.co2 130  ASP130     -0.2456
    195  N         61.8420   14.8230  -22.0790 N.am  131  ASN131     -0.1960
    196  CA        62.6500   15.9750  -22.4880 C.3   131  ASN131      0.1819
    197  C         62.8530   16.0710  -23.9900 C.2   131  ASN131      0.2622
    198  O         63.3900   17.0660  -24.4840 O.2   131  ASN131     -0.2715
    199  CB        64.0260   15.9010  -21.8310 C.3   131  ASN131      0.1195
    200  CG        64.8440   14.7300  -22.3260 C.2   131  ASN131      0.2630
    201  OD1       65.8630   14.8930  -23.0240 O.2   131  ASN131     -0.2716
    202  ND2       64.4140   13.5480  -21.9730 N.am  131  ASN131     -0.0877
    203  N         62.4600   15.0270  -24.7110 N.am  132  SER132     -0.1950
    204  CA        62.6250   14.9790  -26.1580 C.3   132  SER132      0.1924
    205  C         61.2720   14.9870  -26.8730 C.2   132  SER132      0.2314
    206  O         60.5190   14.0210  -26.7890 O.2   132  SER132     -0.2863
    207  CB        63.4070   13.7140  -26.5250 C.3   132  SER132      0.2116
    208  OG        63.5100   13.5670  -27.9290 O.3   132  SER132     -0.2180
    209  N         60.5450   14.5530  -29.8610 N.3   134  ALA134     -0.1231
    210  CA        60.4630   13.4360  -30.7960 C.3   134  ALA134      0.1694
    211  C         59.8450   12.2090  -30.1320 C.2   134  ALA134      0.2592
    212  O         59.2210   11.3770  -30.8000 O.2   134  ALA134     -0.2718
    213  CB        61.8680   13.1080  -31.3430 C.3   134  ALA134      0.0304
    214  N         60.0330   12.0870  -28.8180 N.am  135  SER135     -0.1952
    215  CA        59.4980   10.9520  -28.0760 C.3   135  SER135      0.1924
    216  C         57.9790   10.8490  -28.1180 C.2   135  SER135      0.2314
    217  O         57.4290    9.7490  -28.0340 O.2   135  SER135     -0.2863
    218  CB        59.9480   11.0190  -26.6090 C.3   135  SER135      0.2116
    219  OG        61.3550   10.9170  -26.5240 O.3   135  SER135     -0.2180
@<TRIPOS>BOND
     1   154   155    1
     2   155   156    1
     3   156   158   am
     4   156   157    2
     5   165   163   am
     6   158   159    1
     7   163   162    1
     8   163   164    2
     9   159   162    1
    10   159   160    1
    11   161   160    2
    12   160   166   am
    13   213   210    1
    14   166   167    1
    15   177   176    1
    16   212   211    2
    17   210   211    1
    18   210   209    1
    19   176   174   ar
    20   176   175   ar
    21   167   168    1
    22   167   170    1
    23   174   172   ar
    24   175   173   ar
    25   211   214   am
    26   168   169    2
    27   172   171   ar
    28   173   171   ar
    29   171   170    1
    30   214   215    1
    31   216   215    1
    32   216   217    2
    33   215   218    1
    34   178   179    1
    35   208   207    1
    36   149   148    1
    37   149   150    1
    38   180   181    2
    39   180   179    1
    40   146   145    2
    41   148   147    1
    42   152   151    1
    43    87    86   ar
    44   179   182    1
    45   205   206    2
    46   205   204    1
    47    88    86   ar
    48   150   151    2
    49    86    85    1
    50   218   219    1
    51   151   153    1
    52   207   204    1
    53   145   144    1
    54   204   203    1
    55   147   144    1
    56   107   104    1
    57    85    82    1
    58   182   183    1
    59   144   143    1
    60   184   183    1
    61   184   185    1
    62   106   105    2
    63   186   185    1
    64   121   119    1
    65   203   197   am
    66    82    81    1
    67    82    83    1
    68   104   105    1
    69   104   103    1
    70    79    77    1
    71   198   197    2
    72   120   119    1
    73   105   108   am
    74    81    75   am
    75   197   196    1
    76   119   118    1
    77    84    83    2
    78   193   192   ar
    79   103    98   am
    80   194   192   ar
    81   192   191    1
    82    75    76    2
    83    75    74    1
    84   201   200    2
    85    77    74    1
    86    77    78    1
    87    99    98    2
    88   108   109    1
    89   191   188    1
    90    98    97    1
    91    74    73    1
    92   190   189    2
    93    80    78    1
    94   196   195    1
    95   196   199    1
    96   118   115    1
    97   109   110    1
    98   109   112    1
    99   111   110    2
   100   200   202   am
   101   200   199    1
   102   110   114   am
   103   114   115    1
   104   189   195   am
   105   189   188    1
   106    32    31   ar
   107   130   129    1
   108   115   116    1
   109     8     6   am
   110   188   187    1
   111    97    96    1
   112    97   100    1
   113    54    52   ar
   114    54    56   ar
   115    52    51   ar
   116    31    30    1
   117    31    33   ar
   118    56    55   ar
   119    30    29    1
   120    73    66   am
   121   112   113    1
   122     6     7    2
   123     6     5    1
   124   129   128    1
   125   101   100    1
   126    51    53   ar
   127    51    50    1
   128    55    53   ar
   129    29    26    1
   130   128   127    1
   131    67    66    2
   132    50    47    1
   133   116   117    2
   134    20    19    2
   135   100   102    1
   136    24    22   ar
   137    66    65    1
   138     5     2    1
   139    21    22    1
   140    21    18    1
   141   127   126    1
   142    19    18    1
   143    19    25   am
   144    22    23   ar
   145    46    47    1
   146    46    42   am
   147    47    48    1
   148    72    70   ar
   149    26    25    1
   150    26    27    1
   151    37    36    2
   152     2     1    1
   153     2     3    1
   154    18    17    1
   155    69    70    1
   156    69    68    1
   157    62    61    1
   158    48    49    2
   159    28    27    2
   160    65    68    1
   161    65    64    1
   162    44    41    1
   163    44    45    1
   164    17    11   am
   165   126   123    1
   166    41    42    1
   167    41    40    1
   168   122   123    1
   169    70    71   ar
   170     9     3   am
   171     9    10    1
   172    42    43    2
   173    60    59    2
   174   138   140   ar
   175   138   136   ar
   176   135   136    1
   177   135   132    1
   178     3     4    2
   179    36    40   am
   180    36    35    1
   181    64    59   am
   182   140   141   ar
   183    59    58    1
   184   123   124    1
   185   136   137   ar
   186    61    58    1
   187    61    63    1
   188    11    10    1
   189    11    12    2
   190   131   124   am
   191   131   132    1
   192    10    13    1
   193    13    14    1
   194    95    93    1
   195    34    35    1
   196   124   125    2
   197   141   142    1
   198   141   139   ar
   199   132   133    1
   200    35    38    1
   201    58    57    1
   202    38    39    1
   203   137   139   ar
   204    94    93    1
   205    16    14    1
   206    14    15    1
   207   133   134    2
   208    93    90    1
   209    90    89    1
   210    90    91    1
   211    91    92    2
