@<TRIPOS>MOLECULE
tmp/2ghtA00.pdb
 167 158 0 0 0
SMALL
GASTEIGER

@<TRIPOS>ATOM
      1  N         26.3190   -0.6220    6.1830 N.3    20  ASN20      -0.1225
      2  CA        27.4180   -0.7310    5.2330 C.3    20  ASN20       0.1785
      3  C         28.1890    0.5920    5.1860 C.2    20  ASN20       0.2597
      4  O         27.6700    1.6270    5.5890 O.2    20  ASN20      -0.2718
      5  CB        26.8460   -1.0370    3.8530 C.3    20  ASN20       0.1169
      6  CG        27.9150   -1.3250    2.8330 C.2    20  ASN20       0.2627
      7  OD1       27.9440   -0.7020    1.7920 O.2    20  ASN20      -0.2716
      8  ND2       28.8050   -2.2570    3.1530 N.am   20  ASN20      -0.0877
      9  N         29.4090    0.5600    4.6550 N.am   21  LEU21      -0.1966
     10  CA        30.2230    1.7720    4.5640 C.3    21  LEU21       0.1728
     11  C         30.2730    2.3910    3.1590 C.2    21  LEU21       0.2616
     12  O         29.6510    3.4290    2.9060 O.2    21  LEU21      -0.2715
     13  CB        31.6540    1.4790    5.0530 C.3    21  LEU21       0.0311
     14  CG        32.6640    2.6440    4.9880 C.3    21  LEU21       0.0022
     15  CD1       32.1350    3.8500    5.7870 C.3    21  LEU21       0.0001
     16  CD2       34.0140    2.1750    5.5400 C.3    21  LEU21       0.0001
     17  N         30.9970    1.7490    2.2450 N.am   22  ASP22      -0.1957
     18  CA        31.1520    2.2780    0.8930 C.3    22  ASP22       0.1840
     19  C         29.8700    2.4000    0.0810 C.2    22  ASP22       0.2621
     20  O         29.0810    1.4600   -0.0160 O.2    22  ASP22      -0.2715
     21  CB        32.1720    1.4520    0.1130 C.3    22  ASP22       0.1450
     22  CG        33.5960    1.7370    0.5550 C.2    22  ASP22       0.3671
     23  OD1       33.9390    2.9320    0.6990 O.co2  22  ASP22      -0.2456
     24  OD2       34.3620    0.7730    0.7710 O.co2  22  ASP22      -0.2456
     25  N         29.6860    3.5830   -0.5010 N.am   23  GLU23      -0.1977
     26  CA        28.5090    3.9030   -1.3050 C.3    23  GLU23       0.1602
     27  C         27.2240    3.9850   -0.4890 C.2    23  GLU23       0.2287
     28  O         26.1510    4.2370   -1.0360 O.2    23  GLU23      -0.2864
     29  CB        28.3320    2.8960   -2.4500 C.3    23  GLU23       0.0415
     30  CG        29.3560    3.0400   -3.5660 C.3    23  GLU23       0.1163
     31  CD        30.7200    2.4890   -3.2220 C.2    23  GLU23       0.3649
     32  OE1       30.8440    1.2580   -2.9950 O.co2  23  GLU23      -0.2457
     33  OE2       31.6730    3.2930   -3.2040 O.co2  23  GLU23      -0.2457
     34  N         34.6190    6.6430   -1.6260 N.3    28  SER28      -0.1217
     35  CA        36.0500    6.8660   -1.6910 C.3    28  SER28       0.1889
     36  C         36.6790    6.5690   -3.0300 C.2    28  SER28       0.2288
     37  O         36.1050    5.8560   -3.8550 O.2    28  SER28      -0.2866
     38  CB        36.7430    6.0310   -0.6170 C.3    28  SER28       0.2089
     39  OG        36.1920    6.3130    0.6630 O.3    28  SER28      -0.2183
     40  N         40.8940    6.6160   -5.1580 N.3    30  PHE30      -0.1241
     41  CA        42.3310    6.8260   -5.1090 C.3    30  PHE30       0.1605
     42  C         42.6500    8.0190   -6.0280 C.2    30  PHE30       0.2264
     43  O         43.7740    8.5200   -6.0590 O.2    30  PHE30      -0.2867
     44  CB        43.0810    5.5670   -5.5680 C.3    30  PHE30       0.0534
     45  CG        43.0260    4.4290   -4.5770 C.ar   30  PHE30      -0.0203
     46  CD1       41.9540    3.5400   -4.5710 C.ar   30  PHE30      -0.0042
     47  CD2       44.0470    4.2500   -3.6500 C.ar   30  PHE30      -0.0042
     48  CE1       41.9030    2.4920   -3.6550 C.ar   30  PHE30      -0.0003
     49  CE2       44.0090    3.2020   -2.7290 C.ar   30  PHE30      -0.0003
     50  CZ        42.9310    2.3190   -2.7350 C.ar   30  PHE30      -0.0000
     51  N         46.7410    4.3110    3.0090 N.3    42  VAL42      -0.1245
     52  CA        46.5610    2.8700    3.0650 C.3    42  VAL42       0.1561
     53  C         47.8000    2.2100    2.4790 C.2    42  VAL42       0.2260
     54  O         48.1580    2.4720    1.3270 O.2    42  VAL42      -0.2867
     55  CB        45.2900    2.4250    2.2980 C.3    42  VAL42       0.0252
     56  CG1       45.1310    0.9210    2.3630 C.3    42  VAL42       0.0019
     57  CG2       44.0610    3.0820    2.9280 C.3    42  VAL42       0.0019
     58  N         49.8410   -0.7770    0.9780 N.3    44  ILE44      -0.1245
     59  CA        49.6070   -1.9920    0.2080 C.3    44  ILE44       0.1561
     60  C         50.9450   -2.4850   -0.3340 C.2    44  ILE44       0.2260
     61  O         51.5580   -1.8370   -1.1800 O.2    44  ILE44      -0.2867
     62  CB        48.6370   -1.7170   -0.9700 C.3    44  ILE44       0.0252
     63  CG1       47.2960   -1.2180   -0.4310 C.3    44  ILE44       0.0019
     64  CG2       48.3980   -2.9900   -1.7630 C.3    44  ILE44       0.0019
     65  CD1       46.4010   -0.6060   -1.4760 C.3    44  ILE44       0.0001
     66  N         43.7840    7.5240    0.1500 N.3    51  VAL51      -0.1245
     67  CA        42.3960    7.3180   -0.2460 C.3    51  VAL51       0.1561
     68  C         41.6020    8.5680    0.1160 C.2    51  VAL51       0.2260
     69  O         41.6330    9.0210    1.2650 O.2    51  VAL51      -0.2867
     70  CB        41.7760    6.1040    0.4680 C.3    51  VAL51       0.0252
     71  CG1       40.3130    5.9380    0.0420 C.3    51  VAL51       0.0019
     72  CG2       42.5900    4.8530    0.1560 C.3    51  VAL51       0.0019
     73  N         31.2640   -4.2700    6.5800 N.3    76  THR76      -0.1203
     74  CA        31.7320   -3.8740    5.2610 C.3    76  THR76       0.1994
     75  C         32.5270   -4.9910    4.6090 C.2    76  THR76       0.2618
     76  O         33.0640   -5.8620    5.2970 O.2    76  THR76      -0.2717
     77  CB        32.6180   -2.6010    5.3870 C.3    76  THR76       0.1784
     78  OG1       33.1050   -2.2190    4.1010 O.3    76  THR76      -0.2211
     79  CG2       33.7900   -2.8700    6.3100 C.3    76  THR76       0.0376
     80  N         32.5910   -4.9580    3.2810 N.am   77  ALA77      -0.1965
     81  CA        33.3480   -5.9380    2.5240 C.3    77  ALA77       0.1728
     82  C         34.7230   -5.3380    2.2400 C.2    77  ALA77       0.2617
     83  O         35.5100   -5.9020    1.4780 O.2    77  ALA77      -0.2715
     84  CB        32.6330   -6.2740    1.2120 C.3    77  ALA77       0.0334
     85  N         35.0290   -4.2090    2.8800 N.am   78  SER78      -0.1936
     86  CA        36.3360   -3.5770    2.6740 C.3    78  SER78       0.2055
     87  C         37.3040   -4.0400    3.7520 C.2    78  SER78       0.2642
     88  O         36.8910   -4.6270    4.7580 O.2    78  SER78      -0.2714
     89  CB        36.1970   -2.0520    2.6960 C.3    78  SER78       0.2130
     90  OG        35.8190   -1.5910    3.9790 O.3    78  SER78      -0.2179
     91  N         38.5960   -3.7940    3.5400 N.am   79  LEU79      -0.1977
     92  CA        39.6260   -4.2000    4.5010 C.3    79  LEU79       0.1596
     93  C         39.6970   -3.2140    5.6580 C.2    79  LEU79       0.2287
     94  O         39.4330   -2.0230    5.4810 O.2    79  LEU79      -0.2864
     95  CB        41.0080   -4.2790    3.8260 C.3    79  LEU79       0.0297
     96  CG        41.1040   -5.1950    2.5990 C.3    79  LEU79       0.0022
     97  CD1       42.4810   -5.0580    1.9520 C.3    79  LEU79       0.0001
     98  CD2       40.8420   -6.6400    3.0130 C.3    79  LEU79       0.0001
     99  N         42.2470   -1.9810    7.1310 N.3    81  LYS81      -0.1231
    100  CA        43.2770   -0.9630    6.9310 C.3    81  LYS81       0.1693
    101  C         42.6630    0.2970    6.3200 C.2    81  LYS81       0.2592
    102  O         43.2300    1.3860    6.4020 O.2    81  LYS81      -0.2718
    103  CB        44.3980   -1.4980    6.0220 C.3    81  LYS81       0.0285
    104  CG        43.9760   -1.7790    4.5900 C.3    81  LYS81       0.0035
    105  CD        45.1560   -2.1290    3.6740 C.3    81  LYS81       0.0206
    106  CE        45.9550   -3.3240    4.1650 C.3    81  LYS81       0.1093
    107  NZ        46.9300   -3.8110    3.1240 N.3    81  LYS81      -0.1314
    108  N         41.4980    0.1430    5.6990 N.am   82  TYR82      -0.1976
    109  CA        40.8040    1.2750    5.1030 C.3    82  TYR82       0.1639
    110  C         39.6170    1.6940    5.9360 C.2    82  TYR82       0.2290
    111  O         39.4960    2.8600    6.3270 O.2    82  TYR82      -0.2864
    112  CB        40.3180    0.9140    3.6860 C.3    82  TYR82       0.0560
    113  CG        39.1660    1.7730    3.2040 C.ar   82  TYR82      -0.0198
    114  CD1       39.3380    3.1200    2.8990 C.ar   82  TYR82      -0.0009
    115  CD2       37.8870    1.2300    3.0900 C.ar   82  TYR82      -0.0009
    116  CE1       38.2480    3.9130    2.4900 C.ar   82  TYR82       0.0417
    117  CE2       36.8060    1.9980    2.6880 C.ar   82  TYR82       0.0417
    118  CZ        36.9840    3.3320    2.3900 C.ar   82  TYR82       0.1957
    119  OH        35.8870    4.0770    2.0100 O.3    82  TYR82      -0.2866
    120  N         35.8730   -7.3820    5.6470 N.3   102  ARG102     -0.1245
    121  CA        35.8700   -8.4370    4.6350 C.3   102  ARG102      0.1563
    122  C         36.0280   -9.8640    5.1820 C.2   102  ARG102      0.2260
    123  O         35.3060  -10.7630    4.7610 O.2   102  ARG102     -0.2867
    124  CB        36.9600   -8.1620    3.5890 C.3   102  ARG102      0.0307
    125  CG        36.9260   -9.1210    2.3840 C.3   102  ARG102      0.0489
    126  CD        37.9920   -8.7510    1.3800 C.3   102  ARG102      0.2205
    127  NE        37.7240   -7.4280    0.8320 N.pl3 102  ARG102     -0.0865
    128  CZ        38.5840   -6.7100    0.1130 C.cat 102  ARG102      0.5346
    129  NH1       39.7990   -7.1820   -0.1590 N.pl3 102  ARG102      0.1354
    130  NH2       38.2180   -5.5160   -0.3340 N.pl3 102  ARG102      0.1354
    131  N         30.8970  -11.1220   -1.8660 N.3   112  TYR112     -0.1241
    132  CA        31.0630  -11.1690   -0.4200 C.3   112  TYR112      0.1605
    133  C         29.6840  -10.9040    0.1410 C.2   112  TYR112      0.2264
    134  O         29.0970   -9.8500   -0.1100 O.2   112  TYR112     -0.2867
    135  CB        32.0350  -10.0870    0.0590 C.3   112  TYR112      0.0534
    136  CG        33.4740  -10.3930   -0.2690 C.ar  112  TYR112     -0.0201
    137  CD1       34.2140  -11.2800    0.5030 C.ar  112  TYR112     -0.0009
    138  CD2       34.0800   -9.8210   -1.3880 C.ar  112  TYR112     -0.0009
    139  CE1       35.5310  -11.5970    0.1690 C.ar  112  TYR112      0.0417
    140  CE2       35.3910  -10.1330   -1.7320 C.ar  112  TYR112      0.0417
    141  CZ        36.1100  -11.0230   -0.9480 C.ar  112  TYR112      0.1957
    142  OH        37.4020  -11.3520   -1.2890 O.3   112  TYR112     -0.2866
    143  N         27.0440  -10.5610    3.4060 N.3   114  LYS114     -0.1245
    144  CA        26.9530  -10.2790    4.8330 C.3   114  LYS114      0.1561
    145  C         25.9290  -11.2830    5.3650 C.2   114  LYS114      0.2260
    146  O         24.7300  -11.0110    5.3680 O.2   114  LYS114     -0.2867
    147  CB        26.4310   -8.8590    5.0890 C.3   114  LYS114      0.0271
    148  CG        27.4650   -7.7480    4.9380 C.3   114  LYS114      0.0035
    149  CD        27.6810   -7.3390    3.5050 C.3   114  LYS114      0.0206
    150  CE        28.6030   -6.1140    3.4210 C.3   114  LYS114      0.1093
    151  NZ        28.6710   -5.5970    2.0260 N.3   114  LYS114     -0.1314
    152  N         22.3270   -1.6310    3.2900 N.3   130  ASP130     -0.1225
    153  CA        23.4520   -1.8110    2.3810 C.3   130  ASP130      0.1805
    154  C         23.0010   -1.3810    0.9860 C.2   130  ASP130      0.2597
    155  O         21.8910   -1.6990    0.5670 O.2   130  ASP130     -0.2718
    156  CB        23.8680   -3.2820    2.3840 C.3   130  ASP130      0.1424
    157  CG        25.2450   -3.5010    1.8170 C.2   130  ASP130      0.3668
    158  OD1       25.5000   -3.0570    0.6680 O.co2 130  ASP130     -0.2456
    159  OD2       26.0690   -4.1270    2.5320 O.co2 130  ASP130     -0.2456
    160  N         23.8470   -0.6380    0.2800 N.am  131  ASN131     -0.1974
    161  CA        23.5030   -0.1560   -1.0560 C.3   131  ASN131      0.1688
    162  C         23.5110   -1.2580   -2.1190 C.2   131  ASN131      0.2292
    163  O         23.0190   -1.0440   -3.2210 O.2   131  ASN131     -0.2864
    164  CB        24.4870    0.9210   -1.4990 C.3   131  ASN131      0.1181
    165  CG        25.8750    0.3620   -1.6870 C.2   131  ASN131      0.2629
    166  OD1       26.5380   -0.0150   -0.7140 O.2   131  ASN131     -0.2716
    167  ND2       26.3150    0.2660   -2.9430 N.am  131  ASN131     -0.0877
@<TRIPOS>BOND
     1    43    42    2
     2    42    41    1
     3    44    41    1
     4    44    45    1
     5    40    41    1
     6    45    46   ar
     7    45    47   ar
     8    46    48   ar
     9    37    36    2
    10    48    50   ar
    11    47    49   ar
    12    30    31    1
    13    30    29    1
    14    31    33   ar
    15    31    32   ar
    16   163   162    2
    17    36    35    1
    18   167   165   am
    19    50    49   ar
    20    29    26    1
    21   162   161    1
    22   131   132    1
    23    64    62    1
    24   140   138   ar
    25   140   141   ar
    26    35    34    1
    27    35    38    1
    28   165   164    1
    29   165   166    2
    30   164   161    1
    31    65    63    1
    32   138   136   ar
    33    26    25    1
    34    26    27    1
    35   142   141    1
    36    61    60    2
    37   161   160    1
    38    28    27    2
    39    62    63    1
    40    62    59    1
    41   141   139   ar
    42    38    39    1
    43    25    19   am
    44   132   135    1
    45   132   133    1
    46    60    59    1
    47   130   128    1
    48   136   135    1
    49   136   137   ar
    50    67    68    1
    51    67    66    1
    52    67    70    1
    53   129   128    1
    54   134   133    2
    55    20    19    2
    56    71    70    1
    57    19    18    1
    58    21    22    1
    59    21    18    1
    60   128   127    2
    61    68    69    2
    62    72    70    1
    63   139   137   ar
    64    59    58    1
    65   160   154   am
    66    22    23   ar
    67    22    24   ar
    68   155   154    2
    69   158   157   ar
    70   127   126    1
    71    18    17    1
    72   154   153    1
    73    84    81    1
    74    54    53    2
    75   126   125    1
    76    83    82    2
    77     7     6    2
    78   157   156    1
    79   157   159   ar
    80    97    96    1
    81   119   118    1
    82   151   150    1
    83    82    81    1
    84    82    85   am
    85    17    11   am
    86    55    56    1
    87    55    57    1
    88    55    52    1
    89   153   156    1
    90   153   152    1
    91   125   124    1
    92   118   116   ar
    93   118   117   ar
    94    53    52    1
    95   116   114   ar
    96    81    80    1
    97    96    98    1
    98    96    95    1
    99    86    89    1
   100    86    85    1
   101    86    87    1
   102   117   115   ar
   103    89    90    1
   104     6     8   am
   105     6     5    1
   106   114   113   ar
   107    12    11    2
   108    51    52    1
   109   115   113   ar
   110   107   106    1
   111    11    10    1
   112   113   112    1
   113    80    75   am
   114   143   144    1
   115   150   149    1
   116   149   148    1
   117    91    87   am
   118    91    92    1
   119   124   121    1
   120   105   106    1
   121   105   104    1
   122   112   109    1
   123    87    88    2
   124    95    92    1
   125     5     2    1
   126    78    77    1
   127    92    93    1
   128    10     9    1
   129    10    13    1
   130   104   103    1
   131    75    74    1
   132    75    76    2
   133   121   122    1
   134   121   120    1
   135     9     3   am
   136   123   122    2
   137   144   147    1
   138   144   145    1
   139   148   147    1
   140    14    13    1
   141    14    16    1
   142    14    15    1
   143   109   108    1
   144   109   110    1
   145     3     2    1
   146     3     4    2
   147     2     1    1
   148    74    77    1
   149    74    73    1
   150   145   146    2
   151    77    79    1
   152    94    93    2
   153   108   101   am
   154   110   111    2
   155   103   100    1
   156   101   102    2
   157   101   100    1
   158   100    99    1
