@<TRIPOS>MOLECULE
tmp/2giqA00.pdb
 189 181 0 0 0
SMALL
GASTEIGER

@<TRIPOS>ATOM
      1  N          1.7040   -5.1510  -16.5020 N.3   188  PHE188     -0.1241
      2  CA         2.5490   -4.1210  -15.8750 C.3   188  PHE188      0.1605
      3  C          1.7480   -3.0060  -15.1950 C.2   188  PHE188      0.2264
      4  O          2.3180   -2.1470  -14.5290 O.2   188  PHE188     -0.2867
      5  CB         3.5540   -3.5440  -16.8820 C.3   188  PHE188      0.0534
      6  CG         4.6020   -4.5280  -17.3430 C.ar  188  PHE188     -0.0203
      7  CD1        5.5060   -5.0770  -16.4440 C.ar  188  PHE188     -0.0042
      8  CD2        4.7240   -4.8600  -18.6840 C.ar  188  PHE188     -0.0042
      9  CE1        6.4860   -5.9690  -16.8700 C.ar  188  PHE188     -0.0003
     10  CE2        5.7100   -5.7500  -19.1180 C.ar  188  PHE188     -0.0003
     11  CZ         6.5790   -6.3100  -18.2080 C.ar  188  PHE188     -0.0000
     12  N          2.3660   -6.1130   -7.1830 N.3   192  PRO192     -0.2116
     13  CA         2.3200   -7.5300   -6.8240 C.3   192  PRO192      0.1372
     14  C          0.9760   -7.9700   -6.2200 C.2   192  PRO192      0.2244
     15  O          0.4340   -9.0060   -6.6070 O.2   192  PRO192     -0.2868
     16  CB         3.4620   -7.6550   -5.8080 C.3   192  PRO192      0.0268
     17  CG         4.4480   -6.6440   -6.2840 C.3   192  PRO192      0.0207
     18  CD         3.5810   -5.4630   -6.6580 C.3   192  PRO192      0.0892
     19  N         -1.7240   -7.9710   -8.8360 N.3   195  ARG195     -0.1245
     20  CA        -1.5330   -9.1200   -9.7180 C.3   195  ARG195      0.1563
     21  C         -2.1480  -10.3650   -9.0840 C.2   195  ARG195      0.2260
     22  O         -2.7810  -11.1450   -9.7610 O.2   195  ARG195     -0.2867
     23  CB        -0.0400   -9.3670   -9.9860 C.3   195  ARG195      0.0307
     24  CG         0.2630  -10.5100  -10.9470 C.3   195  ARG195      0.0489
     25  CD         1.7690  -10.7790  -11.1020 C.3   195  ARG195      0.2205
     26  NE         1.9920  -11.9180  -11.9850 N.pl3 195  ARG195     -0.0865
     27  CZ         2.0690  -11.8420  -13.3170 C.cat 195  ARG195      0.5346
     28  NH1        1.9540  -10.6830  -13.9400 N.pl3 195  ARG195      0.1354
     29  NH2        2.2540  -12.9410  -14.0300 N.pl3 195  ARG195      0.1354
     30  N          9.5330   -3.6180  -24.3100 N.3   283  SER283     -0.1217
     31  CA         8.4780   -4.1180  -23.4240 C.3   283  SER283      0.1889
     32  C          7.0850   -4.1020  -24.0690 C.2   283  SER283      0.2288
     33  O          6.4040   -5.1300  -24.1120 O.2   283  SER283     -0.2866
     34  CB         8.4330   -3.3170  -22.1170 C.3   283  SER283      0.2089
     35  OG         7.5180   -3.9010  -21.2210 O.3   283  SER283     -0.2183
     36  N          3.0200  -10.0080  -19.6020 N.3   311  ASN311     -0.1225
     37  CA         4.0860   -9.0810  -19.2280 C.3   311  ASN311      0.1785
     38  C          5.2400   -9.3390  -20.1900 C.2   311  ASN311      0.2598
     39  O          6.0050  -10.2840  -19.9960 O.2   311  ASN311     -0.2718
     40  CB         4.6220   -9.3600  -17.8220 C.3   311  ASN311      0.1169
     41  CG         3.6340   -9.0680  -16.7310 C.2   311  ASN311      0.2627
     42  OD1        2.6210   -9.7180  -16.6240 O.2   311  ASN311     -0.2716
     43  ND2        3.9550   -8.0960  -15.8880 N.am  311  ASN311     -0.0877
     44  N          5.3560   -8.5590  -21.2540 N.am  312  GLY312     -0.1942
     45  CA         6.4050   -8.8150  -22.2450 C.3   312  GLY312      0.2014
     46  C          6.2600  -10.1980  -22.8530 C.2   312  GLY312      0.2639
     47  O          5.1980  -10.5490  -23.3420 O.2   312  GLY312     -0.2714
     48  N          7.3120  -11.0020  -22.7650 N.am  313  ASP313     -0.1957
     49  CA         7.2800  -12.3820  -23.2660 C.3   313  ASP313      0.1840
     50  C          6.7020  -13.4080  -22.2790 C.2   313  ASP313      0.2622
     51  O          6.6820  -14.6050  -22.5730 O.2   313  ASP313     -0.2715
     52  CB         8.6890  -12.8250  -23.6770 C.3   313  ASP313      0.1450
     53  CG         9.6660  -12.8850  -22.5000 C.2   313  ASP313      0.3671
     54  OD1        9.5440  -12.0670  -21.5580 O.co2 313  ASP313     -0.2456
     55  OD2       10.5760  -13.7470  -22.5200 O.co2 313  ASP313     -0.2456
     56  N          6.2480  -12.9550  -21.1130 N.am  314  ASP314     -0.1971
     57  CA         5.7920  -13.8580  -20.0730 C.3   314  ASP314      0.1709
     58  C          4.2800  -13.9520  -20.1440 C.2   314  ASP314      0.2293
     59  O          3.5830  -12.9400  -20.0750 O.2   314  ASP314     -0.2864
     60  CB         6.2430  -13.3320  -18.7170 C.3   314  ASP314      0.1436
     61  CG         6.0150  -14.3230  -17.6020 C.2   314  ASP314      0.3671
     62  OD1        4.8410  -14.5960  -17.2770 O.co2 314  ASP314     -0.2456
     63  OD2        7.0240  -14.8140  -17.0370 O.co2 314  ASP314     -0.2456
     64  N          6.1010  -14.6450  -14.4030 N.3   361  CYS361     -0.1221
     65  CA         6.9650  -13.5620  -13.9520 C.3   361  CYS361      0.1808
     66  C          7.8270  -14.0830  -12.8070 C.2   361  CYS361      0.2602
     67  O          8.0310  -13.3940  -11.8060 O.2   361  CYS361     -0.2717
     68  CB         6.1630  -12.3160  -13.5350 C.3   361  CYS361      0.0970
     69  SG         5.4630  -11.3500  -14.9190 S.3   361  CYS361     -0.0800
     70  N          8.3010  -15.3210  -12.9660 N.am  362  SER362     -0.1938
     71  CA         9.1840  -15.9760  -12.0010 C.3   362  SER362      0.2055
     72  C          8.5640  -16.1360  -10.6110 C.2   362  SER362      0.2643
     73  O          9.2840  -16.4140   -9.6400 O.2   362  SER362     -0.2714
     74  CB        10.5170  -15.2100  -11.8970 C.3   362  SER362      0.2130
     75  OG        11.1190  -15.0820  -13.1760 O.3   362  SER362     -0.2179
     76  N          7.2400  -15.9900  -10.5170 N.am  363  SER363     -0.1949
     77  CA         6.5700  -15.8910   -9.2200 C.3   363  SER363      0.1924
     78  C          5.3330  -16.7690   -9.1490 C.2   363  SER363      0.2314
     79  O          4.7920  -17.1610  -10.1660 O.2   363  SER363     -0.2863
     80  CB         6.1790  -14.4430   -8.9500 C.3   363  SER363      0.2116
     81  OG         7.2780  -13.5640   -9.1700 O.3   363  SER363     -0.2180
     82  N          2.1730  -12.7840   -3.2780 N.3   379  LEU379     -0.1245
     83  CA         3.0880  -13.2460   -4.3020 C.3   379  LEU379      0.1561
     84  C          4.4930  -13.5040   -3.7510 C.2   379  LEU379      0.2260
     85  O          5.0620  -12.6730   -3.0300 O.2   379  LEU379     -0.2867
     86  CB         3.1570  -12.2110   -5.4160 C.3   379  LEU379      0.0270
     87  CG         3.7030  -12.7010   -6.7440 C.3   379  LEU379      0.0019
     88  CD1        2.6920  -13.5500   -7.4880 C.3   379  LEU379      0.0001
     89  CD2        4.0820  -11.5020   -7.5640 C.3   379  LEU379      0.0001
     90  N          8.3410  -16.0850   -4.7460 N.3   381  ARG381     -0.1245
     91  CA         9.1290  -16.8000   -5.7270 C.3   381  ARG381      0.1563
     92  C         10.1650  -17.6420   -5.0080 C.2   381  ARG381      0.2260
     93  O         10.3950  -17.4750   -3.8020 O.2   381  ARG381     -0.2867
     94  CB         9.8440  -15.8230   -6.6680 C.3   381  ARG381      0.0307
     95  CG        10.8660  -14.8780   -5.9910 C.3   381  ARG381      0.0489
     96  CD        11.7980  -14.2490   -7.0280 C.3   381  ARG381      0.2205
     97  NE        12.6030  -15.2700   -7.6980 N.pl3 381  ARG381     -0.0865
     98  CZ        13.1650  -15.1550   -8.9020 C.cat 381  ARG381      0.5346
     99  NH1       13.0280  -14.0600   -9.6460 N.pl3 381  ARG381      0.1354
    100  NH2       13.8750  -16.1580   -9.3640 N.pl3 381  ARG381      0.1354
    101  N         19.5710   -5.2420   -6.5740 N.3   402  SER402     -0.1217
    102  CA        18.5090   -6.2230   -6.6660 C.3   402  SER402      0.1889
    103  C         17.8670   -6.4800   -5.3090 C.2   402  SER402      0.2288
    104  O         16.6560   -6.6980   -5.2390 O.2   402  SER402     -0.2866
    105  CB        19.0050   -7.5330   -7.2780 C.3   402  SER402      0.2089
    106  OG        19.7670   -8.2870   -6.3630 O.3   402  SER402     -0.2183
    107  N         15.0400   -3.8240   -4.8110 N.3   405  GLY405     -0.1210
    108  CA        13.8910   -4.1790   -5.6530 C.3   405  GLY405      0.1956
    109  C         13.1450   -5.3710   -5.0710 C.2   405  GLY405      0.2611
    110  O         11.9140   -5.3800   -4.9960 O.2   405  GLY405     -0.2717
    111  N         13.8770   -6.3910   -4.6460 N.am  406  ASN406     -0.1974
    112  CA        13.2410   -7.5730   -4.0970 C.3   406  ASN406      0.1688
    113  C         12.5290   -7.3530   -2.7650 C.2   406  ASN406      0.2292
    114  O         11.4800   -7.9280   -2.5360 O.2   406  ASN406     -0.2864
    115  CB        14.2460   -8.7210   -3.9750 C.3   406  ASN406      0.1181
    116  CG        14.4760   -9.4310   -5.2980 C.2   406  ASN406      0.2629
    117  OD1       13.5430   -9.6000   -6.1010 O.2   406  ASN406     -0.2716
    118  ND2       15.7050   -9.8940   -5.5190 N.am  406  ASN406     -0.0877
    119  N          9.2350   -5.4750   -3.8820 N.3   409  MET409     -0.1230
    120  CA         8.2450   -6.2880   -4.5870 C.3   409  MET409      0.1702
    121  C          7.7880   -7.5150   -3.8110 C.2   409  MET409      0.2592
    122  O          6.6290   -7.9360   -3.9420 O.2   409  MET409     -0.2718
    123  CB         8.7800   -6.7090   -5.9370 C.3   409  MET409      0.0401
    124  CG         9.0290   -5.5210   -6.8380 C.3   409  MET409      0.0596
    125  SD         7.5310   -4.6440   -7.3090 S.3   409  MET409     -0.1393
    126  CE         7.0840   -5.6570   -8.7140 C.3   409  MET409      0.0692
    127  N          8.6850   -8.0950   -3.0230 N.am  410  TYR410     -0.1976
    128  CA         8.3460   -9.2840   -2.2350 C.3   410  TYR410      0.1639
    129  C          8.3340   -9.0490   -0.7280 C.2   410  TYR410      0.2290
    130  O          8.5980   -9.9710    0.0390 O.2   410  TYR410     -0.2864
    131  CB         9.3110  -10.4240   -2.5630 C.3   410  TYR410      0.0560
    132  CG         9.2440  -10.8880   -3.9960 C.ar  410  TYR410     -0.0198
    133  CD1        8.1620  -11.6360   -4.4450 C.ar  410  TYR410     -0.0009
    134  CD2       10.2690  -10.6110   -4.8880 C.ar  410  TYR410     -0.0009
    135  CE1        8.0900  -12.0720   -5.7680 C.ar  410  TYR410      0.0417
    136  CE2       10.2050  -11.0400   -6.2150 C.ar  410  TYR410      0.0417
    137  CZ         9.1180  -11.7770   -6.6440 C.ar  410  TYR410      0.1957
    138  OH         9.0230  -12.2290   -7.9440 O.3   410  TYR410     -0.2866
    139  N         15.5300   -1.3190   -9.8260 N.3   441  GLN441     -0.1231
    140  CA        14.7640   -1.3790  -11.0650 C.3   441  GLN441      0.1698
    141  C         13.4900   -2.1830  -10.8550 C.2   441  GLN441      0.2592
    142  O         13.5530   -3.3120  -10.3850 O.2   441  GLN441     -0.2718
    143  CB        15.5850   -2.0380  -12.1630 C.3   441  GLN441      0.0381
    144  CG        16.6670   -1.1830  -12.7680 C.3   441  GLN441      0.0905
    145  CD        17.0790   -1.7010  -14.1310 C.2   441  GLN441      0.2608
    146  OE1       17.1530   -0.9450  -15.1010 O.2   441  GLN441     -0.2717
    147  NE2       17.3100   -3.0090  -14.2210 N.am  441  GLN441     -0.0878
    148  N         12.3480   -1.5940  -11.2040 N.am  442  ILE442     -0.1966
    149  CA        11.0470   -2.2850  -11.1320 C.3   442  ILE442      0.1727
    150  C         10.3450   -2.1030  -12.4620 C.2   442  ILE442      0.2616
    151  O         10.2360   -0.9780  -12.9530 O.2   442  ILE442     -0.2715
    152  CB        10.1750   -1.7320  -10.0050 C.3   442  ILE442      0.0290
    153  CG1       10.8790   -1.9230   -8.6550 C.3   442  ILE442      0.0022
    154  CG2        8.8270   -2.4420   -9.9860 C.3   442  ILE442      0.0023
    155  CD1       10.2180   -1.1890   -7.5200 C.3   442  ILE442      0.0001
    156  N          9.9040   -3.2190  -13.0400 N.am  443  TYR443     -0.1960
    157  CA         9.3230   -3.2430  -14.3810 C.3   443  TYR443      0.1771
    158  C         10.1690   -2.4850  -15.4060 C.2   443  TYR443      0.2620
    159  O          9.6330   -1.8070  -16.2950 O.2   443  TYR443     -0.2715
    160  CB         7.8810   -2.7220  -14.3610 C.3   443  TYR443      0.0574
    161  CG         6.8710   -3.5980  -13.6120 C.ar  443  TYR443     -0.0198
    162  CD1        7.1700   -4.9050  -13.2140 C.ar  443  TYR443     -0.0009
    163  CD2        5.5860   -3.1190  -13.3510 C.ar  443  TYR443     -0.0009
    164  CE1        6.2340   -5.6900  -12.5450 C.ar  443  TYR443      0.0417
    165  CE2        4.6440   -3.8960  -12.6950 C.ar  443  TYR443      0.0417
    166  CZ         4.9710   -5.1800  -12.2930 C.ar  443  TYR443      0.1957
    167  OH         4.0230   -5.9370  -11.6310 O.3   443  TYR443     -0.2866
    168  N         11.4920   -2.6100  -15.2660 N.am  444  GLY444     -0.1954
    169  CA        12.4350   -2.0250  -16.2160 C.3   444  GLY444      0.1869
    170  C         12.8540   -0.5880  -15.9590 C.2   444  GLY444      0.2309
    171  O         13.8690   -0.1460  -16.5020 O.2   444  GLY444     -0.2863
    172  N          9.0380   -1.0840  -18.9750 N.3   550  TYR550     -0.1227
    173  CA        10.0370   -0.3530  -19.7600 C.3   550  TYR550      0.1736
    174  C         11.3910   -1.0820  -19.8110 C.2   550  TYR550      0.2596
    175  O         12.4410   -0.4290  -19.9030 O.2   550  TYR550     -0.2718
    176  CB        10.2590    1.0460  -19.1590 C.3   550  TYR550      0.0548
    177  CG         9.0240    1.9070  -18.9970 C.ar  550  TYR550     -0.0200
    178  CD1        8.5350    2.6590  -20.0600 C.ar  550  TYR550     -0.0009
    179  CD2        8.3630    1.9910  -17.7760 C.ar  550  TYR550     -0.0009
    180  CE1        7.4080    3.4520  -19.9190 C.ar  550  TYR550      0.0417
    181  CE2        7.2400    2.7930  -17.6200 C.ar  550  TYR550      0.0417
    182  CZ         6.7630    3.5180  -18.7030 C.ar  550  TYR550      0.1957
    183  OH         5.6460    4.3210  -18.5710 O.3   550  TYR550     -0.2866
    184  N         11.3790   -2.4110  -19.7420 N.am  551  SER551     -0.1952
    185  CA        12.6270   -3.1940  -19.7790 C.3   551  SER551      0.1924
    186  C         13.4890   -2.8030  -20.9840 C.2   551  SER551      0.2314
    187  O         13.0300   -2.8510  -22.1280 O.2   551  SER551     -0.2863
    188  CB        12.3380   -4.6930  -19.8340 C.3   551  SER551      0.2116
    189  OG        13.5490   -5.4250  -19.9970 O.3   551  SER551     -0.2180
@<TRIPOS>BOND
     1    30    31    1
     2    33    32    2
     3    32    31    1
     4    52    49    1
     5    52    53    1
     6    31    34    1
     7    47    46    2
     8    49    48    1
     9    49    50    1
    10    46    48   am
    11    46    45    1
    12    51    50    2
    13    55    53   ar
    14    53    54   ar
    15    50    56   am
    16    45    44    1
    17   187   186    2
    18    34    35    1
    19    44    38   am
    20    56    57    1
    21   186   185    1
    22    38    39    2
    23    38    37    1
    24    58    59    2
    25    58    57    1
    26    57    60    1
    27   178   180   ar
    28   178   177   ar
    29   189   188    1
    30   180   182   ar
    31   175   174    2
    32   188   185    1
    33   174   173    1
    34   174   184   am
    35   185   184    1
    36   173   176    1
    37   173   172    1
    38    36    37    1
    39    37    40    1
    40   176   177    1
    41    10     8   ar
    42    10    11   ar
    43   177   179   ar
    44    60    61    1
    45   182   183    1
    46   182   181   ar
    47     8     6   ar
    48    11     9   ar
    49    40    41    1
    50   179   181   ar
    51    61    62   ar
    52    61    63   ar
    53     6     5    1
    54     6     7   ar
    55     5     2    1
    56     9     7   ar
    57    41    42    2
    58    41    43   am
    59   171   170    2
    60     1     2    1
    61   159   158    2
    62   169   170    1
    63   169   168    1
    64     2     3    1
    65   158   168   am
    66   158   157    1
    67     3     4    2
    68   146   145    2
    69    69    68    1
    70    64    65    1
    71   157   160    1
    72   157   156    1
    73   160   161    1
    74   147   145   am
    75   145   144    1
    76    29    27    1
    77    65    68    1
    78    65    66    1
    79    28    27    1
    80   161   163   ar
    81   161   162   ar
    82   163   165   ar
    83    27    26    2
    84   162   164   ar
    85    75    74    1
    86   156   150   am
    87    70    66   am
    88    70    71    1
    89   151   150    2
    90    66    67    2
    91   144   143    1
    92   165   166   ar
    93   164   166   ar
    94   150   149    1
    95   166   167    1
    96   143   140    1
    97    71    74    1
    98    71    72    1
    99    26    25    1
   100   148   149    1
   101   148   141   am
   102   149   152    1
   103    25    24    1
   104   140   141    1
   105   140   139    1
   106    24    23    1
   107   141   142    2
   108    72    76   am
   109    72    73    2
   110    76    77    1
   111    79    78    2
   112   152   154    1
   113   152   153    1
   114    23    20    1
   115    22    21    2
   116    20    21    1
   117    20    19    1
   118    99    98    1
   119   100    98    1
   120    77    78    1
   121    77    80    1
   122    81    80    1
   123    98    97    2
   124   126   125    1
   125   153   155    1
   126   138   137    1
   127    97    96    1
   128    89    87    1
   129    88    87    1
   130   125   124    1
   131   105   102    1
   132   105   106    1
   133    12    13    1
   134    12    18    1
   135    96    95    1
   136   124   123    1
   137    13    14    1
   138    13    16    1
   139    87    86    1
   140    94    95    1
   141    94    91    1
   142   102   101    1
   143   102   103    1
   144    18    17    1
   145   137   136   ar
   146   137   135   ar
   147    15    14    2
   148    17    16    1
   149   136   134   ar
   150   117   116    2
   151   123   120    1
   152   135   133   ar
   153    91    92    1
   154    91    90    1
   155   108   109    1
   156   108   107    1
   157   118   116   am
   158    86    83    1
   159   103   104    2
   160   116   115    1
   161   109   110    2
   162   109   111   am
   163    92    93    2
   164   134   132   ar
   165   111   112    1
   166   120   119    1
   167   120   121    1
   168   133   132   ar
   169    83    84    1
   170    83    82    1
   171   112   115    1
   172   112   113    1
   173   132   131    1
   174   122   121    2
   175   121   127   am
   176    84    85    2
   177   127   128    1
   178   113   114    2
   179   131   128    1
   180   128   129    1
   181   129   130    2
