@<TRIPOS>MOLECULE
tmp/2girB00.pdb
 131 127 0 0 0
SMALL
GASTEIGER

@<TRIPOS>ATOM
      1  N          8.3280   15.2580   -3.0040 N.3   414  LEU414     -0.1245
      2  CA         9.1390   15.7840   -4.0920 C.3   414  LEU414      0.1561
      3  C         10.5950   15.3440   -3.9670 C.2   414  LEU414      0.2260
      4  O         11.1980   14.8230   -4.9220 O.2   414  LEU414     -0.2867
      5  CB         9.0430   17.3070   -4.0520 C.3   414  LEU414      0.0270
      6  CG         9.7930   18.1080   -5.1040 C.3   414  LEU414      0.0019
      7  CD1        9.3480   17.7090   -6.5090 C.3   414  LEU414      0.0001
      8  CD2        9.5250   19.5860   -4.8570 C.3   414  LEU414      0.0001
      9  N         11.5390   11.4160   -4.0230 N.3   417  ARG417     -0.1231
     10  CA        11.4100   10.8460   -5.3650 C.3   417  ARG417      0.1694
     11  C         12.4920   11.3870   -6.2840 C.2   417  ARG417      0.2591
     12  O         13.2030   10.6340   -6.9650 O.2   417  ARG417     -0.2718
     13  CB        10.0350   11.1890   -5.9380 C.3   417  ARG417      0.0321
     14  CG         8.8840   10.6410   -5.1180 C.3   417  ARG417      0.0489
     15  CD         7.5780   11.2290   -5.5880 C.3   417  ARG417      0.2205
     16  NE         7.1900   10.7280   -6.8970 N.pl3 417  ARG417     -0.0865
     17  CZ         6.3350   11.3140   -7.7350 C.cat 417  ARG417      0.5346
     18  NH1        5.7590   12.4890   -7.4660 N.pl3 417  ARG417      0.1354
     19  NH2        6.0830   10.7230   -8.8920 N.pl3 417  ARG417      0.1354
     20  N         12.6360   12.7010   -6.3000 N.am  418  MET418     -0.1979
     21  CA        13.5860   13.3250   -7.2180 C.3   418  MET418      0.1605
     22  C         15.0430   12.9500   -6.9100 C.2   418  MET418      0.2287
     23  O         15.8230   12.6480   -7.8210 O.2   418  MET418     -0.2864
     24  CB        13.4150   14.8460   -7.1740 C.3   418  MET418      0.0413
     25  CG        14.2890   15.5780   -8.1880 C.3   418  MET418      0.0598
     26  SD        14.0040   17.3530   -8.1680 S.3   418  MET418     -0.1393
     27  CE        14.7700   17.7840   -6.6410 C.3   418  MET418      0.0692
     28  N          2.3130   12.0960   -8.0070 N.3   469  LEU469     -0.1231
     29  CA         2.1220   13.4200   -7.4290 C.3   469  LEU469      0.1693
     30  C          2.9010   14.4730   -8.1930 C.2   469  LEU469      0.2592
     31  O          4.0250   14.2340   -8.6510 O.2   469  LEU469     -0.2718
     32  CB         2.4980   13.4600   -5.9450 C.3   469  LEU469      0.0284
     33  CG         1.6350   12.6290   -4.9870 C.3   469  LEU469      0.0019
     34  CD1        1.8610   13.1010   -3.5590 C.3   469  LEU469      0.0001
     35  CD2        0.1580   12.7140   -5.3290 C.3   469  LEU469      0.0001
     36  N          2.2780   15.6340   -8.3330 N.am  470  HIS470     -0.1962
     37  CA         2.8820   16.7900   -8.9840 C.3   470  HIS470      0.1787
     38  C          2.1010   18.0380   -8.5500 C.2   470  HIS470      0.2621
     39  O          1.1600   17.9410   -7.7490 O.2   470  HIS470     -0.2715
     40  CB         2.8600   16.6240  -10.5100 C.3   470  HIS470      0.0785
     41  CG         1.4810   16.5710  -11.0840 C.ar  470  HIS470      0.0821
     42  ND1        0.8900   17.6580  -11.6890 N.ar  470  HIS470     -0.2267
     43  CD2        0.5680   15.5700  -11.1270 C.ar  470  HIS470      0.1154
     44  CE1       -0.3310   17.3300  -12.0740 C.ar  470  HIS470      0.1986
     45  NE2       -0.5510   16.0690  -11.7460 N.ar  470  HIS470     -0.2212
     46  N          2.4760   19.2000   -9.0810 N.am  471  SER471     -0.1936
     47  CA         1.9030   20.4680   -8.6300 C.3   471  SER471      0.2055
     48  C          1.8930   20.4960   -7.1080 C.2   471  SER471      0.2643
     49  O          0.8430   20.5840   -6.4580 O.2   471  SER471     -0.2714
     50  CB         0.5010   20.6910   -9.2060 C.3   471  SER471      0.2130
     51  OG         0.5210   20.5830  -10.6090 O.3   471  SER471     -0.2179
     52  N          3.0870   20.3820   -6.5400 N.am  472  TYR472     -0.1973
     53  CA         3.2660   20.4700   -5.1090 C.3   472  TYR472      0.1639
     54  C          2.9700   21.9020   -4.6710 C.2   472  TYR472      0.2290
     55  O          2.8030   22.7860   -5.5060 O.2   472  TYR472     -0.2864
     56  CB         4.6850   20.0550   -4.7360 C.3   472  TYR472      0.0560
     57  CG         4.9530   18.5690   -4.8970 C.ar  472  TYR472     -0.0198
     58  CD1        5.4280   18.0280   -6.0960 C.ar  472  TYR472     -0.0009
     59  CD2        4.7580   17.7080   -3.8330 C.ar  472  TYR472     -0.0009
     60  CE1        5.6820   16.6680   -6.2210 C.ar  472  TYR472      0.0417
     61  CE2        5.0010   16.3600   -3.9480 C.ar  472  TYR472      0.0417
     62  CZ         5.4680   15.8410   -5.1230 C.ar  472  TYR472      0.1957
     63  OH         5.7040   14.4970   -5.1650 O.3   472  TYR472     -0.2866
     64  N          7.5260   23.5760   -2.2870 N.3   477  ILE477     -0.1245
     65  CA         8.4630   23.8630   -3.3690 C.3   477  ILE477      0.1561
     66  C          9.5820   24.7760   -2.8770 C.2   477  ILE477      0.2260
     67  O         10.7700   24.5030   -3.0900 O.2   477  ILE477     -0.2867
     68  CB         7.7460   24.5010   -4.5870 C.3   477  ILE477      0.0252
     69  CG1        6.8940   23.4420   -5.2980 C.3   477  ILE477      0.0019
     70  CG2        8.7600   25.1250   -5.5550 C.3   477  ILE477      0.0019
     71  CD1        5.9230   23.9930   -6.3390 C.3   477  ILE477      0.0001
     72  N         11.9460   22.9160   -0.3250 N.3   480  VAL480     -0.1231
     73  CA        12.8340   21.9450   -0.9720 C.3   480  VAL480      0.1692
     74  C         13.9230   22.6860   -1.7650 C.2   480  VAL480      0.2591
     75  O         15.1110   22.3940   -1.6340 O.2   480  VAL480     -0.2718
     76  CB        12.0310   21.0050   -1.8890 C.3   480  VAL480      0.0266
     77  CG1       12.9520   20.1350   -2.7650 C.3   480  VAL480      0.0020
     78  CG2       11.0960   20.1350   -1.0570 C.3   480  VAL480      0.0020
     79  N         13.5140   23.6600   -2.5730 N.am  481  ALA481     -0.1980
     80  CA        14.4620   24.4450   -3.3730 C.3   481  ALA481      0.1597
     81  C         15.4930   25.1880   -2.5150 C.2   481  ALA481      0.2287
     82  O         16.6780   25.2010   -2.8520 O.2   481  ALA481     -0.2864
     83  CB        13.7310   25.3990   -4.2680 C.3   481  ALA481      0.0319
     84  N         17.9680   22.6560   -1.2720 N.3   484  LEU484     -0.1245
     85  CA        18.9400   22.2850   -2.3010 C.3   484  LEU484      0.1561
     86  C         20.0100   23.3500   -2.4860 C.2   484  LEU484      0.2260
     87  O         21.1840   23.0250   -2.6480 O.2   484  LEU484     -0.2867
     88  CB        18.2530   21.9980   -3.6300 C.3   484  LEU484      0.0270
     89  CG        17.1420   20.9410   -3.6160 C.3   484  LEU484      0.0019
     90  CD1       16.6640   20.6480   -5.0190 C.3   484  LEU484      0.0001
     91  CD2       17.5360   19.6680   -2.9040 C.3   484  LEU484      0.0001
     92  N         20.2810   20.7100   -9.5360 N.3   491  PRO491     -0.2102
     93  CA        18.8850   21.0190   -9.8230 C.3   491  PRO491      0.1504
     94  C         18.1070   19.8940  -10.5170 C.2   491  PRO491      0.2575
     95  O         18.6760   18.8780  -10.8920 O.2   491  PRO491     -0.2718
     96  CB        18.9920   22.2420  -10.7350 C.3   491  PRO491      0.0282
     97  CG        20.2970   22.0710  -11.4400 C.3   491  PRO491      0.0208
     98  CD        21.2060   21.4010  -10.4470 C.3   491  PRO491      0.0893
     99  N         16.8080   20.1230  -10.6940 N.am  492  LEU492     -0.1980
    100  CA        15.8920   19.1540  -11.3070 C.3   492  LEU492      0.1596
    101  C         16.4110   18.6280  -12.6330 C.2   492  LEU492      0.2287
    102  O         16.2940   17.4440  -12.9090 O.2   492  LEU492     -0.2864
    103  CB        14.5030   19.7860  -11.5050 C.3   492  LEU492      0.0297
    104  CG        13.5130   19.0380  -12.4120 C.3   492  LEU492      0.0022
    105  CD1       13.1960   17.6540  -11.8560 C.3   492  LEU492      0.0001
    106  CD2       12.2410   19.8570  -12.6230 C.3   492  LEU492      0.0001
    107  N         16.5330   14.7510  -13.2840 N.3   496  ARG496     -0.1245
    108  CA        15.6870   14.1760  -14.3310 C.3   496  ARG496      0.1563
    109  C         16.5080   13.3240  -15.3030 C.2   496  ARG496      0.2260
    110  O         16.1210   12.2080  -15.6200 O.2   496  ARG496     -0.2867
    111  CB        14.9250   15.2600  -15.0670 C.3   496  ARG496      0.0307
    112  CG        13.9280   14.7280  -16.0820 C.3   496  ARG496      0.0489
    113  CD        12.9810   15.8340  -16.4990 C.3   496  ARG496      0.2205
    114  NE        12.0840   15.4110  -17.5680 N.pl3 496  ARG496     -0.0865
    115  CZ        10.8000   15.0410  -17.4320 C.cat 496  ARG496      0.5346
    116  NH1       10.1860   15.0160  -16.2390 N.pl3 496  ARG496      0.1354
    117  NH2       10.1160   14.6880  -18.5280 N.pl3 496  ARG496      0.1354
    118  N          7.8210    9.7030  -13.2970 N.3   523  TRP523     -0.1241
    119  CA         7.8500   11.1710  -13.2910 C.3   523  TRP523      0.1605
    120  C          8.8920   11.7890  -14.2260 C.2   523  TRP523      0.2264
    121  O          8.7650   12.9510  -14.5940 O.2   523  TRP523     -0.2867
    122  CB         8.0980   11.7190  -11.8750 C.3   523  TRP523      0.0550
    123  CG         9.4350   11.3040  -11.2590 C.ar  523  TRP523      0.0003
    124  CD1        9.6570   10.2250  -10.4340 C.ar  523  TRP523      0.0946
    125  CD2       10.7080   11.9610  -11.4030 C.ar  523  TRP523      0.0152
    126  NE1       10.9800   10.1670  -10.0830 N.ar  523  TRP523     -0.2442
    127  CE2       11.6430   11.2280  -10.6430 C.ar  523  TRP523      0.0810
    128  CE3       11.1450   13.1060  -12.0890 C.ar  523  TRP523      0.0012
    129  CZ2       12.9900   11.5830  -10.5710 C.ar  523  TRP523      0.0191
    130  CZ3       12.4920   13.4500  -12.0170 C.ar  523  TRP523      0.0001
    131  CH2       13.3900   12.6970  -11.2600 C.ar  523  TRP523      0.0015
@<TRIPOS>BOND
     1   117   115    1
     2   114   115    2
     3   114   113    1
     4   115   116    1
     5   113   112    1
     6   112   111    1
     7   110   109    2
     8   109   108    1
     9   111   108    1
    10   121   120    2
    11   108   107    1
    12   120   119    1
    13   118   119    1
    14   119   122    1
    15   102   101    2
    16   101   100    1
    17   106   104    1
    18   104   105    1
    19   104   103    1
    20   128   130   ar
    21   128   125   ar
    22    44    45   ar
    23    44    42   ar
    24   130   131   ar
    25   122   123    1
    26    45    43   ar
    27    42    41   ar
    28   103   100    1
    29    97    96    1
    30    97    98    1
    31   125   123   ar
    32   125   127   ar
    33   100    99    1
    34   131   129   ar
    35   123   124   ar
    36    43    41   ar
    37    41    40    1
    38    95    94    2
    39    96    93    1
    40    99    94   am
    41   127   129   ar
    42   127   126   ar
    43    51    50    1
    44    94    93    1
    45    40    37    1
    46    98    92    1
    47   124   126   ar
    48    93    92    1
    49    50    47    1
    50    46    47    1
    51    46    38   am
    52    37    38    1
    53    37    36    1
    54    19    17    1
    55    31    30    2
    56    47    48    1
    57    38    39    2
    58    36    30   am
    59    30    29    1
    60    25    26    1
    61    25    24    1
    62    26    27    1
    63    28    29    1
    64    23    22    2
    65    17    18    1
    66    17    16    2
    67    29    32    1
    68    21    24    1
    69    21    22    1
    70    21    20    1
    71    48    52   am
    72    48    49    2
    73    12    11    2
    74    16    15    1
    75    52    53    1
    76     7     6    1
    77    71    69    1
    78    20    11   am
    79    11    10    1
    80    60    58   ar
    81    60    62   ar
    82    58    57   ar
    83    32    33    1
    84    13    10    1
    85    13    14    1
    86    15    14    1
    87    70    68    1
    88    55    54    2
    89    10     9    1
    90    35    33    1
    91    69    68    1
    92    63    62    1
    93    62    61   ar
    94    53    56    1
    95    53    54    1
    96     6     8    1
    97     6     5    1
    98    90    89    1
    99    33    34    1
   100     4     3    2
   101    57    56    1
   102    57    59   ar
   103    68    65    1
   104    83    80    1
   105     2     5    1
   106     2     3    1
   107     2     1    1
   108    61    59   ar
   109    88    89    1
   110    88    85    1
   111    89    91    1
   112    80    79    1
   113    80    81    1
   114    65    66    1
   115    65    64    1
   116    67    66    2
   117    82    81    2
   118    77    76    1
   119    87    86    2
   120    79    74   am
   121    86    85    1
   122    85    84    1
   123    76    78    1
   124    76    73    1
   125    74    75    2
   126    74    73    1
   127    73    72    1
