@<TRIPOS>MOLECULE
tmp/2giuA00.pdb
 178 169 0 0 0
SMALL
GASTEIGER

@<TRIPOS>ATOM
      1  N         14.8790   15.6030  111.4220 N.3    29  MET29      -0.1230
      2  CA        16.2410   15.3180  111.8620 C.3    29  MET29       0.1702
      3  C         16.5030   13.8180  111.6960 C.2    29  MET29       0.2592
      4  O         17.4680   13.4510  111.0280 O.2    29  MET29      -0.2718
      5  CB        16.4820   15.7300  113.3080 C.3    29  MET29       0.0401
      6  CG        17.9260   16.0430  113.6620 C.3    29  MET29       0.0596
      7  SD        18.0700   16.9760  115.2020 S.3    29  MET29      -0.1393
      8  CE        19.0930   15.8600  116.1640 C.3    29  MET29       0.0692
      9  N         15.6260   13.0240  112.2990 N.am   30  MET30      -0.1979
     10  CA        15.6470   11.5710  112.2280 C.3    30  MET30       0.1605
     11  C         15.3490   11.0750  110.8220 C.2    30  MET30       0.2287
     12  O         15.7310    9.9670  110.4430 O.2    30  MET30      -0.2864
     13  CB        14.6450   10.9450  113.2030 C.3    30  MET30       0.0413
     14  CG        14.9690   11.2730  114.6570 C.3    30  MET30       0.0598
     15  SD        16.6170   10.7280  115.1520 S.3    30  MET30      -0.1393
     16  CE        16.5200    9.0020  114.6570 C.3    30  MET30       0.0692
     17  N         18.7460   11.9580  109.2620 N.3    33  LEU33      -0.1231
     18  CA        19.7410   11.1050  109.8880 C.3    33  LEU33       0.1693
     19  C         19.6550    9.6700  109.3900 C.2    33  LEU33       0.2592
     20  O         20.7050    9.0900  109.0760 O.2    33  LEU33      -0.2718
     21  CB        19.6130   11.1500  111.4120 C.3    33  LEU33       0.0284
     22  CG        19.9490   12.4660  112.1180 C.3    33  LEU33       0.0019
     23  CD1       19.7340   12.3250  113.6200 C.3    33  LEU33       0.0001
     24  CD2       21.3730   12.9040  111.8160 C.3    33  LEU33       0.0001
     25  N         18.4720    9.0700  109.3020 N.am   34  THR34      -0.1953
     26  CA        18.4040    7.6810  108.8330 C.3    34  THR34       0.1897
     27  C         18.7190    7.5450  107.3510 C.2    34  THR34       0.2313
     28  O         19.2590    6.5510  106.8640 O.2    34  THR34      -0.2863
     29  CB        17.0160    7.0650  109.0760 C.3    34  THR34       0.1794
     30  OG1       16.0260    8.1010  109.1040 O.3    34  THR34      -0.2208
     31  CG2       17.0020    6.3680  110.4250 C.3    34  THR34       0.0378
     32  N         20.8580    9.4360  105.7990 N.3    36  LEU36      -0.1231
     33  CA        22.3150    9.5490  105.8160 C.3    36  LEU36       0.1693
     34  C         22.9770    8.2080  106.1080 C.2    36  LEU36       0.2591
     35  O         23.8630    7.7560  105.3720 O.2    36  LEU36      -0.2718
     36  CB        22.7430   10.6060  106.8380 C.3    36  LEU36       0.0284
     37  CG        24.2390   10.9470  106.8760 C.3    36  LEU36       0.0019
     38  CD1       24.6930   11.5070  105.5350 C.3    36  LEU36       0.0001
     39  CD2       24.5590   11.9140  108.0060 C.3    36  LEU36       0.0001
     40  N         22.5700    7.5240  107.1780 N.am   37  ALA37      -0.1980
     41  CA        23.1970    6.2470  107.5040 C.3    37  ALA37       0.1597
     42  C         23.0610    5.2350  106.3740 C.2    37  ALA37       0.2287
     43  O         24.0330    4.5270  106.1030 O.2    37  ALA37      -0.2864
     44  CB        22.6290    5.6240  108.7750 C.3    37  ALA37       0.0319
     45  N         25.7410    6.2080  104.1010 N.3    40  GLU40      -0.1245
     46  CA        27.0560    5.9100  104.6560 C.3    40  GLU40       0.1567
     47  C         27.3270    4.4150  104.7460 C.2    40  GLU40       0.2260
     48  O         28.4900    4.0010  104.6560 O.2    40  GLU40      -0.2867
     49  CB        27.2090    6.5370  106.0450 C.3    40  GLU40       0.0388
     50  CG        27.0440    8.0440  106.0980 C.3    40  GLU40       0.1160
     51  CD        27.4380    8.6130  107.4490 C.2    40  GLU40       0.3649
     52  OE1       26.5840    8.6660  108.3600 O.co2  40  GLU40      -0.2457
     53  OE2       28.6110    9.0180  107.5970 O.co2  40  GLU40      -0.2457
     54  N         28.6150   -1.1840  112.9890 N.3    70  TRP70      -0.1227
     55  CA        28.3470   -0.0830  112.0450 C.3    70  TRP70       0.1737
     56  C         28.1820    1.2550  112.7580 C.2    70  TRP70       0.2595
     57  O         28.8600    2.2150  112.3560 O.2    70  TRP70      -0.2718
     58  CB        27.1840   -0.4460  111.1330 C.3    70  TRP70       0.0564
     59  CG        25.8240   -0.6060  111.7130 C.ar   70  TRP70       0.0003
     60  CD1       25.2540   -1.7440  112.2210 C.ar   70  TRP70       0.0946
     61  CD2       24.8410    0.4370  111.8390 C.ar   70  TRP70       0.0152
     62  NE1       23.9780   -1.4690  112.6580 N.ar   70  TRP70      -0.2442
     63  CE2       23.7040   -0.1400  112.4340 C.ar   70  TRP70       0.0810
     64  CE3       24.8290    1.7920  111.5050 C.ar   70  TRP70       0.0012
     65  CZ2       22.5630    0.6100  112.6980 C.ar   70  TRP70       0.0191
     66  CZ3       23.6920    2.5290  111.7690 C.ar   70  TRP70       0.0001
     67  CH2       22.5730    1.9360  112.3590 C.ar   70  TRP70       0.0015
     68  N         27.3710    1.4140  113.7860 N.am   71  MET71      -0.1979
     69  CA        27.1870    2.7090  114.4560 C.3    71  MET71       0.1605
     70  C         28.4340    3.2660  115.1270 C.2    71  MET71       0.2287
     71  O         28.6500    4.4910  115.0560 O.2    71  MET71      -0.2864
     72  CB        26.0340    2.5530  115.4560 C.3    71  MET71       0.0413
     73  CG        25.5890    3.7980  116.1890 C.3    71  MET71       0.0598
     74  SD        24.7670    5.0120  115.1540 S.3    71  MET71      -0.1393
     75  CE        23.0520    4.5350  115.3430 C.3    71  MET71       0.0692
     76  N         30.4590    4.8780  112.2860 N.3    74  LEU74      -0.1231
     77  CA        29.8520    6.0990  111.7710 C.3    74  LEU74       0.1693
     78  C         29.9780    7.2280  112.7930 C.2    74  LEU74       0.2591
     79  O         30.0320    8.3970  112.4120 O.2    74  LEU74      -0.2718
     80  CB        28.3810    5.9390  111.4100 C.3    74  LEU74       0.0284
     81  CG        27.9840    4.8250  110.4430 C.3    74  LEU74       0.0019
     82  CD1       26.4640    4.7330  110.3750 C.3    74  LEU74       0.0001
     83  CD2       28.5870    5.0230  109.0590 C.3    74  LEU74       0.0001
     84  N         30.0260    6.8600  114.0690 N.am   75  MET75      -0.1979
     85  CA        30.2260    7.8620  115.1190 C.3    75  MET75       0.1605
     86  C         31.6920    8.2790  115.2370 C.2    75  MET75       0.2287
     87  O         31.9630    9.4680  115.4430 O.2    75  MET75      -0.2864
     88  CB        29.7160    7.3280  116.4530 C.3    75  MET75       0.0413
     89  CG        28.2120    7.4480  116.6560 C.3    75  MET75       0.0598
     90  SD        27.7100    6.6030  118.1730 S.3    75  MET75      -0.1393
     91  CE        26.1440    7.4100  118.4900 C.3    75  MET75       0.0692
     92  N         32.2400   10.6630  112.5800 N.3    78  LEU78      -0.1245
     93  CA        31.5630   11.9090  112.9190 C.3    78  LEU78       0.1561
     94  C         32.3720   12.7730  113.8730 C.2    78  LEU78       0.2260
     95  O         32.5650   13.9680  113.6670 O.2    78  LEU78      -0.2867
     96  CB        30.1980   11.6290  113.5670 C.3    78  LEU78       0.0270
     97  CG        29.5450   12.8100  114.2930 C.3    78  LEU78       0.0019
     98  CD1       29.0520   13.8320  113.2710 C.3    78  LEU78       0.0001
     99  CD2       28.4180   12.3460  115.2020 C.3    78  LEU78       0.0001
    100  N         35.2000   14.2400  112.1080 N.3    81  ARG81      -0.1245
    101  CA        34.7660   15.3510  111.2640 C.3    81  ARG81       0.1563
    102  C         34.4500   16.6170  112.0550 C.2    81  ARG81       0.2260
    103  O         34.5360   17.7330  111.5230 O.2    81  ARG81      -0.2867
    104  CB        33.5180   14.9610  110.4630 C.3    81  ARG81       0.0307
    105  CG        33.7680   14.1920  109.1870 C.3    81  ARG81       0.0489
    106  CD        32.5600   14.2280  108.2650 C.3    81  ARG81       0.2205
    107  NE        31.3780   13.6160  108.8680 N.pl3  81  ARG81      -0.0865
    108  CZ        31.1950   12.3020  108.8430 C.cat  81  ARG81       0.5346
    109  NH1       32.0990   11.5180  108.2680 N.pl3  81  ARG81       0.1354
    110  NH2       30.1180   11.7790  109.3930 N.pl3  81  ARG81       0.1354
    111  N         27.7670   16.2070  110.5080 N.3    91  PHE91      -0.1241
    112  CA        27.2160   14.9610  110.0060 C.3    91  PHE91       0.1605
    113  C         27.5070   14.7490  108.5260 C.2    91  PHE91       0.2264
    114  O         27.7420   13.6330  108.0690 O.2    91  PHE91      -0.2867
    115  CB        25.6990   14.9330  110.2570 C.3    91  PHE91       0.0534
    116  CG        25.3720   14.7890  111.7410 C.ar   91  PHE91      -0.0203
    117  CD1       25.4170   13.5510  112.3590 C.ar   91  PHE91      -0.0042
    118  CD2       25.0300   15.8820  112.5100 C.ar   91  PHE91      -0.0042
    119  CE1       25.1270   13.4210  113.7050 C.ar   91  PHE91      -0.0003
    120  CE2       24.7400   15.7590  113.8560 C.ar   91  PHE91      -0.0003
    121  CZ        24.7920   14.5220  114.4660 C.ar   91  PHE91      -0.0000
    122  N         17.7150   12.4810  121.8650 N.3   107  ILE107     -0.1245
    123  CA        18.8390   12.8540  121.0420 C.3   107  ILE107      0.1561
    124  C         19.7490   13.8320  121.7670 C.2   107  ILE107      0.2260
    125  O         20.9620   13.8640  121.5590 O.2   107  ILE107     -0.2867
    126  CB        18.3410   13.4840  119.7250 C.3   107  ILE107      0.0252
    127  CG1       17.6740   12.4660  118.7940 C.3   107  ILE107      0.0019
    128  CG2       19.4600   14.2450  119.0370 C.3   107  ILE107      0.0019
    129  CD1       18.6570   11.5060  118.1580 C.3   107  ILE107      0.0001
    130  N         22.4990   11.7780  123.7520 N.3   110  ILE110     -0.1231
    131  CA        23.4980   11.2550  122.8250 C.3   110  ILE110      0.1692
    132  C         24.3890   12.3920  122.3250 C.2   110  ILE110      0.2592
    133  O         25.6180   12.2700  122.3100 O.2   110  ILE110     -0.2718
    134  CB        22.8320   10.5160  121.6520 C.3   110  ILE110      0.0266
    135  CG1       21.9620    9.3300  122.0890 C.3   110  ILE110      0.0019
    136  CG2       23.8510   10.0480  120.6270 C.3   110  ILE110      0.0020
    137  CD1       21.4010    8.5460  120.9180 C.3   110  ILE110      0.0001
    138  N         23.7570   13.5000  121.9480 N.am  111  PHE111     -0.1976
    139  CA        24.4590   14.6940  121.5010 C.3   111  PHE111      0.1639
    140  C         25.5940   15.0910  122.4350 C.2   111  PHE111      0.2290
    141  O         26.6960   15.4680  122.0160 O.2   111  PHE111     -0.2864
    142  CB        23.4730   15.8640  121.3500 C.3   111  PHE111      0.0560
    143  CG        23.9410   16.8700  120.3060 C.ar  111  PHE111     -0.0200
    144  CD1       24.9060   17.8050  120.6250 C.ar  111  PHE111     -0.0042
    145  CD2       23.4140   16.8630  119.0250 C.ar  111  PHE111     -0.0042
    146  CE1       25.3370   18.7200  119.6830 C.ar  111  PHE111     -0.0003
    147  CE2       23.8390   17.7700  118.0700 C.ar  111  PHE111     -0.0003
    148  CZ        24.8120   18.6960  118.4040 C.ar  111  PHE111     -0.0000
    149  N         28.6130   12.6290  122.3980 N.3   114  LEU114     -0.1245
    150  CA        29.4910   12.7580  121.2320 C.3   114  LEU114      0.1561
    151  C         30.3180   14.0370  121.2680 C.2   114  LEU114      0.2260
    152  O         31.4310   14.0970  120.7380 O.2   114  LEU114     -0.2867
    153  CB        28.6950   12.7140  119.9310 C.3   114  LEU114      0.0270
    154  CG        27.9760   11.4190  119.5620 C.3   114  LEU114      0.0019
    155  CD1       26.8870   11.6880  118.5270 C.3   114  LEU114      0.0001
    156  CD2       28.9440   10.3740  119.0300 C.3   114  LEU114      0.0001
    157  N         22.8010    5.1540  120.8380 N.3   201  GLY201     -0.1225
    158  CA        22.2210    5.4130  119.5320 C.3   201  GLY201      0.1811
    159  C         21.3900    4.2400  119.0450 C.2   201  GLY201      0.2280
    160  O         20.3010    4.4530  118.5070 O.2   201  GLY201     -0.2866
    161  N         18.0140    4.2230  121.0110 N.3   204  HIS204     -0.1226
    162  CA        17.1670    5.2730  120.4860 C.3   204  HIS204      0.1752
    163  C         16.5010    4.8850  119.1680 C.2   204  HIS204      0.2595
    164  O         15.3450    5.2330  118.9490 O.2   204  HIS204     -0.2718
    165  CB        17.9650    6.5510  120.2130 C.3   204  HIS204      0.0759
    166  CG        17.1090    7.6970  119.7680 C.ar  204  HIS204      0.0818
    167  ND1       17.1500    8.2120  118.4950 N.ar  204  HIS204     -0.2268
    168  CD2       16.1900    8.4350  120.4340 C.ar  204  HIS204      0.1154
    169  CE1       16.2950    9.2140  118.3870 C.ar  204  HIS204      0.1986
    170  NE2       15.6990    9.3680  119.5520 N.ar  204  HIS204     -0.2212
    171  N         17.2700    4.1870  118.3520 N.am  205  LEU205     -0.1980
    172  CA        16.9030    3.7440  117.0250 C.3   205  LEU205      0.1596
    173  C         15.8510    2.6460  116.9850 C.2   205  LEU205      0.2287
    174  O         15.0220    2.6350  116.0610 O.2   205  LEU205     -0.2864
    175  CB        18.1490    3.2250  116.2820 C.3   205  LEU205      0.0297
    176  CG        17.9930    3.3080  114.7600 C.3   205  LEU205      0.0022
    177  CD1       17.1620    4.5320  114.4130 C.3   205  LEU205      0.0001
    178  CD2       19.3510    3.3450  114.0820 C.3   205  LEU205      0.0001
@<TRIPOS>BOND
     1    45    46    1
     2    48    47    2
     3    46    47    1
     4    46    49    1
     5    35    34    2
     6    38    37    1
     7    32    33    1
     8    33    34    1
     9    33    36    1
    10    49    50    1
    11    50    51    1
    12    43    42    2
    13    34    40   am
    14    42    41    1
    15    36    37    1
    16    28    27    2
    17    37    39    1
    18    40    41    1
    19    27    26    1
    20    51    53   ar
    21    51    52   ar
    22    41    44    1
    23   114   113    2
    24   106   107    1
    25   106   105    1
    26   109   108    1
    27   113   112    1
    28    26    29    1
    29    26    25    1
    30   108   107    2
    31   108   110    1
    32    83    81    1
    33    29    30    1
    34    29    31    1
    35    20    19    2
    36   105   104    1
    37    17    18    1
    38    25    19   am
    39    19    18    1
    40    18    21    1
    41   112   115    1
    42   112   111    1
    43   115   116    1
    44    82    81    1
    45    12    11    2
    46    81    80    1
    47   104   101    1
    48    11    10    1
    49     4     3    2
    50    58    59    1
    51    58    55    1
    52   101   102    1
    53   101   100    1
    54    80    77    1
    55    21    22    1
    56     1     2    1
    57    64    66   ar
    58    64    61   ar
    59   103   102    2
    60     3     2    1
    61     3     9   am
    62    59    61   ar
    63    59    60   ar
    64   116   117   ar
    65   116   118   ar
    66    66    67   ar
    67    77    76    1
    68    77    78    1
    69    24    22    1
    70    61    63   ar
    71     2     5    1
    72    55    56    1
    73    55    54    1
    74    22    23    1
    75    60    62   ar
    76    10     9    1
    77    10    13    1
    78    57    56    2
    79    67    65   ar
    80   117   119   ar
    81    79    78    2
    82    63    62   ar
    83    63    65   ar
    84   118   120   ar
    85    92    93    1
    86    56    68   am
    87    78    84   am
    88    93    96    1
    89    93    94    1
    90    13    14    1
    91    98    97    1
    92     5     6    1
    93    96    97    1
    94     6     7    1
    95    95    94    2
    96   119   121   ar
    97    68    69    1
    98   120   121   ar
    99    84    85    1
   100   178   176    1
   101    97    99    1
   102   177   176    1
   103    69    70    1
   104    69    72    1
   105    14    15    1
   106    16    15    1
   107   176   175    1
   108    71    70    2
   109    85    86    1
   110    85    88    1
   111    74    75    1
   112    74    73    1
   113     7     8    1
   114    86    87    2
   115    72    73    1
   116   174   173    2
   117   175   172    1
   118    88    89    1
   119    89    90    1
   120   173   172    1
   121   172   171    1
   122   147   148   ar
   123   147   145   ar
   124   129   127    1
   125    90    91    1
   126   171   163   am
   127   169   167   ar
   128   169   170   ar
   129   148   146   ar
   130   167   166   ar
   131   160   159    2
   132   155   154    1
   133   127   126    1
   134   164   163    2
   135   145   143   ar
   136   156   154    1
   137   128   126    1
   138   159   158    1
   139   163   162    1
   140   158   157    1
   141   170   168   ar
   142   154   153    1
   143   146   144   ar
   144   126   123    1
   145   166   165    1
   146   166   168   ar
   147   153   150    1
   148   165   162    1
   149   143   144   ar
   150   143   142    1
   151   162   161    1
   152   136   134    1
   153   152   151    2
   154   137   135    1
   155   123   124    1
   156   123   122    1
   157   150   151    1
   158   150   149    1
   159   142   139    1
   160   139   138    1
   161   139   140    1
   162   125   124    2
   163   134   135    1
   164   134   131    1
   165   138   132   am
   166   141   140    2
   167   133   132    2
   168   132   131    1
   169   131   130    1
