@<TRIPOS>MOLECULE
tmp/2gj3B00.pdb
 211 201 0 0 0
SMALL
GASTEIGER

@<TRIPOS>ATOM
      1  N         26.6770   -4.1900   13.3010 N.3    21  THR21      -0.1218
      2  CA        26.2710   -4.3090   11.8740 C.3    21  THR21       0.1862
      3  C         26.8870   -5.6230   11.3610 C.2    21  THR21       0.2287
      4  O         27.8780   -6.2040   11.8890 O.2    21  THR21      -0.2866
      5  CB        26.7460   -3.1510   10.9960 C.3    21  THR21       0.1770
      6  OG1       28.1820   -3.2490   10.7860 O.3    21  THR21      -0.2211
      7  CG2       26.4460   -1.8170   11.5690 C.3    21  THR21       0.0375
      8  N         28.7910   -7.1990    7.7950 N.3    23  LEU23      -0.1231
      9  CA        29.9760   -6.6870    7.0810 C.3    23  LEU23       0.1693
     10  C         29.7020   -5.6450    6.0070 C.2    23  LEU23       0.2595
     11  O         30.6570   -5.0560    5.5840 O.2    23  LEU23      -0.2718
     12  CB        30.7300   -7.8190    6.5160 C.3    23  LEU23       0.0284
     13  CG        31.2560   -8.8590    7.4730 C.3    23  LEU23       0.0019
     14  CD1       32.0640   -9.9870    6.7760 C.3    23  LEU23       0.0001
     15  CD2       31.8290   -8.3990    8.7410 C.3    23  LEU23       0.0001
     16  N         28.4060   -5.4800    5.7730 N.am   24  LYS24      -0.1920
     17  CA        27.9750   -4.4200    4.9260 C.3    24  LYS24       0.1944
     18  C         27.6160   -3.1590    5.4840 C.2    24  LYS24       0.2658
     19  O         27.2190   -2.2010    4.7810 O.2    24  LYS24      -0.2711
     20  CB        26.8110   -4.9040    4.0540 C.2    24  LYS24      -0.0002
     21  CG        27.0190   -6.1850    3.2770 C.2    24  LYS24      -0.0270
     22  CD        25.7590   -6.7780    2.6050 C.3    24  LYS24       0.0462
     23  CE        26.1120   -8.0440    1.7830 C.3    24  LYS24       0.1140
     24  NZ        24.9370   -8.6360    0.9960 N.3    24  LYS24      -0.1310
     25  N         27.6150   -3.1320    6.8180 N.am   25  ALA25      -0.1974
     26  CA        27.1590   -1.9510    7.6030 C.3    25  ALA25       0.1597
     27  C         25.6540   -1.8110    7.7410 C.2    25  ALA25       0.2287
     28  O         25.1520   -0.7600    8.0890 O.2    25  ALA25      -0.2864
     29  CB        27.9540   -0.5660    7.2430 C.3    25  ALA25       0.0319
     30  N         21.2150    0.6910    6.6200 N.3    49  ASN49      -0.1225
     31  CA        22.6600    0.9560    6.6700 C.3    49  ASN49       0.1785
     32  C         23.0780    2.1630    7.4840 C.2    49  ASN49       0.2597
     33  O         22.3240    3.1320    7.4880 O.2    49  ASN49      -0.2718
     34  CB        23.1430    1.3130    5.2450 C.3    49  ASN49       0.1169
     35  CG        24.6160    1.0370    5.0480 C.2    49  ASN49       0.2627
     36  OD1       25.5140    1.8970    5.2160 O.2    49  ASN49      -0.2716
     37  ND2       24.8540   -0.2000    4.6240 N.am   49  ASN49      -0.0877
     38  N         24.2980    2.1490    8.1250 N.am   50  GLU50      -0.1965
     39  CA        24.8310    3.3180    8.8390 C.3    50  GLU50       0.1733
     40  C         24.8190    4.6080    7.9700 C.2    50  GLU50       0.2617
     41  O         24.8470    5.6740    8.6490 O.2    50  GLU50      -0.2715
     42  CB        26.2100    2.9900    9.3690 C.3    50  GLU50       0.0429
     43  CG        26.2870    1.7970   10.3040 C.3    50  GLU50       0.1163
     44  CD        25.8980    2.1700   11.7130 C.2    50  GLU50       0.3649
     45  OE1       26.0000    1.2460   12.6250 O.co2  50  GLU50      -0.2457
     46  OE2       25.5600    3.3540   12.0270 O.co2  50  GLU50      -0.2457
     47  N         24.9920    4.4610    6.6810 N.am   51  SER51      -0.1950
     48  CA        25.0180    5.6360    5.8790 C.3    51  SER51       0.1924
     49  C         23.7620    6.5100    6.1590 C.2    51  SER51       0.2314
     50  O         23.7670    7.6870    5.7270 O.2    51  SER51      -0.2863
     51  CB        25.1340    5.2450    4.3780 C.3    51  SER51       0.2116
     52  OG        24.0480    4.4350    3.9330 O.3    51  SER51      -0.2180
     53  N         22.9960    7.8960    8.5170 N.3    53  LEU53      -0.1231
     54  CA        23.4300    8.9380    9.4900 C.3    53  LEU53       0.1693
     55  C         24.2280   10.0010    8.8000 C.2    53  LEU53       0.2592
     56  O         24.6240   11.0330    9.4060 O.2    53  LEU53      -0.2718
     57  CB        24.2760    8.3850   10.6430 C.3    53  LEU53       0.0284
     58  CG        23.4730    7.4350   11.5130 C.3    53  LEU53       0.0019
     59  CD1       24.4130    6.8280   12.6110 C.3    53  LEU53       0.0001
     60  CD2       22.2640    8.1350   12.1120 C.3    53  LEU53       0.0001
     61  N         24.4760    9.8390    7.5340 N.am   54  SER54      -0.1952
     62  CA        25.3980   10.7740    6.9830 C.3    54  SER54       0.1924
     63  C         24.5240   11.8560    6.4000 C.2    54  SER54       0.2314
     64  O         23.6630   11.5150    5.5710 O.2    54  SER54      -0.2863
     65  CB        26.2940   10.1960    5.8930 C.3    54  SER54       0.2116
     66  OG        25.5280    9.6020    4.9000 O.3    54  SER54      -0.2180
     67  N         25.0830   13.5180    3.8250 N.3    56  GLY56      -0.1225
     68  CA        25.8530   13.3450    2.6160 C.3    56  GLY56       0.1811
     69  C         26.8280   14.4890    2.4050 C.2    56  GLY56       0.2280
     70  O         27.0110   14.8170    1.3000 O.2    56  GLY56      -0.2866
     71  N         29.9760   14.2450    4.3040 N.3    58  THR58      -0.1218
     72  CA        31.3020   13.7640    4.7750 C.3    58  THR58       0.1862
     73  C         32.1460   13.4980    3.5440 C.2    58  THR58       0.2287
     74  O         31.7090   12.7980    2.6320 O.2    58  THR58      -0.2866
     75  CB        31.0930   12.5250    5.6590 C.3    58  THR58       0.1770
     76  OG1       30.3100   12.9470    6.7770 O.3    58  THR58      -0.2211
     77  CG2       32.4380   12.0130    6.2270 C.3    58  THR58       0.0375
     78  N         34.6050   11.8330    1.0070 N.3    60  ARG60      -0.1245
     79  CA        34.8110   10.4070    0.7370 C.3    60  ARG60       0.1563
     80  C         36.0650    9.9030    1.4150 C.2    60  ARG60       0.2260
     81  O         36.0530    8.7640    1.9060 O.2    60  ARG60      -0.2867
     82  CB        34.8950   10.1380   -0.7520 C.3    60  ARG60       0.0307
     83  CG        34.1040    8.9060   -1.1920 C.3    60  ARG60       0.0489
     84  CD        33.6190    8.8050   -2.7550 C.3    60  ARG60       0.2205
     85  NE        32.2760    8.1360   -2.7330 N.pl3  60  ARG60      -0.0865
     86  CZ        31.1300    8.7900   -3.0870 C.cat  60  ARG60       0.5346
     87  NH1       31.2600   10.0120   -3.5260 N.pl3  60  ARG60       0.1354
     88  NH2       29.8500    8.2870   -3.0570 N.pl3  60  ARG60       0.1354
     89  N         35.5590    8.4960    4.9210 N.3    63  TYR63      -0.1227
     90  CA        35.0720    7.0870    4.9010 C.3    63  TYR63       0.1736
     91  C         36.0680    6.0980    4.3830 C.2    63  TYR63       0.2595
     92  O         36.0790    4.9180    4.8370 O.2    63  TYR63      -0.2718
     93  CB        33.8570    6.9710    4.0300 C.3    63  TYR63       0.0548
     94  CG        32.7310    7.7890    4.5490 C.ar   63  TYR63      -0.0200
     95  CD1       32.0610    8.6730    3.6890 C.ar   63  TYR63      -0.0009
     96  CD2       32.2990    7.6300    5.8430 C.ar   63  TYR63      -0.0009
     97  CE1       30.9950    9.4160    4.1170 C.ar   63  TYR63       0.0417
     98  CE2       31.2400    8.3410    6.3280 C.ar   63  TYR63       0.0417
     99  CZ        30.5740    9.2400    5.4550 C.ar   63  TYR63       0.1957
    100  OH        29.5330    9.8700    6.0040 O.3    63  TYR63      -0.2866
    101  N         36.8590    6.5160    3.3830 N.am   64  GLN64      -0.1979
    102  CA        37.8540    5.6100    2.9210 C.3    64  GLN64       0.1601
    103  C         38.7830    5.2420    4.0670 C.2    64  GLN64       0.2287
    104  O         39.2320    4.0710    4.1660 O.2    64  GLN64      -0.2864
    105  CB        38.5990    6.2600    1.7410 C.3    64  GLN64       0.0394
    106  CG        39.6510    5.3210    1.1440 C.3    64  GLN64       0.0908
    107  CD        40.4240    6.0110    0.0310 C.2    64  GLN64       0.2608
    108  OE1       41.6460    6.2010    0.1700 O.2    64  GLN64      -0.2717
    109  NE2       39.7360    6.4510   -1.0040 N.am   64  GLN64      -0.0878
    110  N         38.0990    5.2310    7.3430 N.3    66  LEU66      -0.1231
    111  CA        37.3640    4.3800    8.2790 C.3    66  LEU66       0.1693
    112  C         37.3800    2.9130    7.7160 C.2    66  LEU66       0.2592
    113  O         37.7540    1.9520    8.4160 O.2    66  LEU66      -0.2718
    114  CB        35.8970    4.8960    8.2660 C.3    66  LEU66       0.0284
    115  CG        34.8310    4.2270    9.1690 C.3    66  LEU66       0.0019
    116  CD1       33.5790    5.1720    9.2690 C.3    66  LEU66       0.0001
    117  CD2       34.3840    2.8390    8.7610 C.3    66  LEU66       0.0001
    118  N         36.8940    2.7320    6.4830 N.am   67  TRP67      -0.1976
    119  CA        36.7940    1.3460    5.8890 C.3    67  TRP67       0.1640
    120  C         38.1720    0.7570    5.6890 C.2    67  TRP67       0.2290
    121  O         38.3460   -0.4910    5.7410 O.2    67  TRP67      -0.2864
    122  CB        36.0050    1.4020    4.6070 C.3    67  TRP67       0.0576
    123  CG        34.5680    1.5150    4.8430 C.ar   67  TRP67       0.0006
    124  CD1       33.7730    2.6860    4.9080 C.ar   67  TRP67       0.0946
    125  CD2       33.7050    0.4440    5.2230 C.ar   67  TRP67       0.0152
    126  NE1       32.4620    2.3740    5.1300 N.ar   67  TRP67      -0.2442
    127  CE2       32.3680    1.0070    5.3920 C.ar   67  TRP67       0.0810
    128  CE3       33.8790   -0.9180    5.4010 C.ar   67  TRP67       0.0012
    129  CZ2       31.2440    0.1980    5.6440 C.ar   67  TRP67       0.0191
    130  CZ3       32.7510   -1.7080    5.7130 C.ar   67  TRP67       0.0001
    131  CH2       31.4540   -1.1420    5.7990 C.ar   67  TRP67       0.0015
    132  N         39.0800   -0.8800    8.8870 N.3    70  LEU70      -0.1245
    133  CA        38.3130   -2.0900    9.0330 C.3    70  LEU70       0.1561
    134  C         38.8790   -3.2580    8.1580 C.2    70  LEU70       0.2260
    135  O         38.8960   -4.3900    8.5720 O.2    70  LEU70      -0.2867
    136  CB        36.8140   -1.8150    8.7600 C.3    70  LEU70       0.0270
    137  CG        36.1400   -0.8350    9.8230 C.3    70  LEU70       0.0019
    138  CD1       34.6150   -0.6910    9.3970 C.3    70  LEU70       0.0001
    139  CD2       36.3490   -1.3740   11.2380 C.3    70  LEU70       0.0001
    140  N         32.8080   12.9440   12.6830 N.3    80  LEU80      -0.1231
    141  CA        32.1190   13.2200   11.4920 C.3    80  LEU80       0.1693
    142  C         30.8150   13.8520   11.7940 C.2    80  LEU80       0.2592
    143  O         30.3680   13.8000   12.9100 O.2    80  LEU80      -0.2718
    144  CB        31.9430   12.0550   10.5080 C.3    80  LEU80       0.0284
    145  CG        31.2800   10.7430   10.9880 C.3    80  LEU80       0.0019
    146  CD1       31.4630    9.6980    9.9370 C.3    80  LEU80       0.0001
    147  CD2       32.0010   10.2750   12.1300 C.3    80  LEU80       0.0001
    148  N         30.2710   14.5650   10.8290 N.am   81  VAL81      -0.1966
    149  CA        28.9580   15.2000   11.0440 C.3    81  VAL81       0.1727
    150  C         27.8650   14.2310   10.6360 C.2    81  VAL81       0.2616
    151  O         27.7520   13.8000    9.4880 O.2    81  VAL81      -0.2715
    152  CB        28.8090   16.5430   10.2630 C.3    81  VAL81       0.0290
    153  CG1       27.3900   17.1120   10.4870 C.3    81  VAL81       0.0023
    154  CG2       29.8980   17.4980   10.7300 C.3    81  VAL81       0.0023
    155  N         27.0850   13.8480   11.6610 N.am   82  ASN82      -0.1972
    156  CA        25.9320   12.9790   11.3830 C.3    82  ASN82       0.1688
    157  C         24.6280   13.7650   11.3220 C.2    82  ASN82       0.2292
    158  O         24.5620   14.8910   11.7650 O.2    82  ASN82      -0.2864
    159  CB        25.7680   11.9600   12.5400 C.3    82  ASN82       0.1181
    160  CG        26.6830   10.6860   12.3720 C.2    82  ASN82       0.2629
    161  OD1       27.2050   10.5640   11.2540 O.2    82  ASN82      -0.2716
    162  ND2       26.7000    9.7950   13.2950 N.am   82  ASN82      -0.0877
    163  N         33.0490    9.0700   16.5730 N.3    94  LEU94      -0.1245
    164  CA        32.7040    7.7190   16.1540 C.3    94  LEU94       0.1561
    165  C         33.9350    6.8210   16.3440 C.2    94  LEU94       0.2260
    166  O         35.0080    7.1690   15.8430 O.2    94  LEU94      -0.2867
    167  CB        32.3040    7.7140   14.6560 C.3    94  LEU94       0.0270
    168  CG        31.9350    6.3700   14.0120 C.3    94  LEU94       0.0019
    169  CD1       30.8160    5.6590   14.7240 C.3    94  LEU94       0.0001
    170  CD2       31.7000    6.4550   12.4980 C.3    94  LEU94       0.0001
    171  N         34.6970    2.7360   15.2440 N.3    96  VAL96      -0.1245
    172  CA        34.1670    1.4860   14.6650 C.3    96  VAL96       0.1561
    173  C         35.2160    0.4400   14.8740 C.2    96  VAL96       0.2260
    174  O         36.3930    0.7380   14.8300 O.2    96  VAL96      -0.2867
    175  CB        33.9380    1.6470   13.1700 C.3    96  VAL96       0.0252
    176  CG1       32.8830    2.6470   13.0030 C.3    96  VAL96       0.0019
    177  CG2       35.2620    2.0200   12.4510 C.3    96  VAL96       0.0019
    178  N         30.6470   -5.6540   12.7170 N.3   109  TYR109     -0.1227
    179  CA        31.3010   -4.3490   13.1660 C.3   109  TYR109      0.1736
    180  C         30.5330   -3.7210   14.2650 C.2   109  TYR109      0.2595
    181  O         29.2800   -3.8770   14.3240 O.2   109  TYR109     -0.2718
    182  CB        31.3730   -3.3560   12.0030 C.3   109  TYR109      0.0548
    183  CG        32.2640   -3.8400   10.8720 C.ar  109  TYR109     -0.0200
    184  CD1       31.7770   -3.9310    9.6100 C.ar  109  TYR109     -0.0009
    185  CD2       33.6660   -4.0490   11.0660 C.ar  109  TYR109     -0.0009
    186  CE1       32.6120   -4.3180    8.5150 C.ar  109  TYR109      0.0417
    187  CE2       34.5240   -4.4850   10.0440 C.ar  109  TYR109      0.0417
    188  CZ        33.9480   -4.6060    8.7470 C.ar  109  TYR109      0.1957
    189  OH        34.7740   -5.0240    7.7860 O.3   109  TYR109     -0.2866
    190  N         31.2320   -3.0340   15.1610 N.am  110  LEU110     -0.1966
    191  CA        30.6550   -2.2720   16.2340 C.3   110  LEU110      0.1728
    192  C         30.7820   -0.7890   15.8490 C.2   110  LEU110      0.2616
    193  O         31.8410   -0.3370   15.3620 O.2   110  LEU110     -0.2715
    194  CB        31.4550   -2.4400   17.5390 C.3   110  LEU110      0.0311
    195  CG        31.5940   -3.8980   17.9330 C.3   110  LEU110      0.0022
    196  CD1       32.4680   -3.9280   19.1940 C.3   110  LEU110      0.0001
    197  CD2       30.2680   -4.6110   18.0600 C.3   110  LEU110      0.0001
    198  N         29.6450   -0.1040   15.9600 N.am  111  GLY111     -0.1955
    199  CA        29.6910    1.4050   15.6800 C.3   111  GLY111      0.1869
    200  C         29.3610    2.0080   17.0100 C.2   111  GLY111      0.2309
    201  O         28.2550    1.7380   17.5840 O.2   111  GLY111     -0.2863
    202  N         29.2950    5.7270   19.2040 N.3   113  HIS113     -0.1241
    203  CA        29.5270    7.1320   19.1220 C.3   113  HIS113      0.1621
    204  C         28.9530    7.9850   20.1940 C.2   113  HIS113      0.2264
    205  O         27.9830    7.5570   20.7960 O.2   113  HIS113     -0.2867
    206  CB        29.1900    7.6740   17.7470 C.3   113  HIS113      0.0745
    207  CG        27.7430    7.7890   17.3830 C.ar  113  HIS113      0.0817
    208  ND1       27.0500    9.0000   17.3850 N.ar  113  HIS113     -0.2268
    209  CD2       26.8710    6.8590   16.9090 C.ar  113  HIS113      0.1154
    210  CE1       25.8600    8.8040   16.7980 C.ar  113  HIS113      0.1986
    211  NE2       25.6790    7.4920   16.6470 N.ar  113  HIS113     -0.2212
@<TRIPOS>BOND
     1    87    86    1
     2    86    88    1
     3    86    85    2
     4    84    85    1
     5    84    83    1
     6    83    82    1
     7   109   107   am
     8    82    79    1
     9   107   108    2
    10   107   106    1
    11    79    78    1
    12    79    80    1
    13    24    23    1
    14   106   105    1
    15    70    69    2
    16    80    81    2
    17   105   102    1
    18    23    22    1
    19    69    68    1
    20    22    21    1
    21    68    67    1
    22    74    73    2
    23   102   101    1
    24   102   103    1
    25    21    20    2
    26   101    91   am
    27    73    72    1
    28    95    97   ar
    29    95    94   ar
    30    52    51    1
    31    93    94    1
    32    93    90    1
    33    20    17    1
    34   103   104    2
    35    97    99   ar
    36    71    72    1
    37    51    48    1
    38    91    92    2
    39    91    90    1
    40    94    96   ar
    41   122   123    1
    42   122   119    1
    43    37    35   am
    44    72    75    1
    45    19    18    2
    46   123   124   ar
    47   123   125   ar
    48    66    65    1
    49    90    89    1
    50   124   126   ar
    51    17    18    1
    52    17    16    1
    53    35    36    2
    54    35    34    1
    55   126   127   ar
    56   125   127   ar
    57   125   128   ar
    58    34    31    1
    59   127   129   ar
    60   128   130   ar
    61    99   100    1
    62    99    98   ar
    63    18    25   am
    64    64    63    2
    65    11    10    2
    66   129   131   ar
    67    75    77    1
    68    75    76    1
    69   120   121    2
    70   120   119    1
    71   130   131   ar
    72    50    49    2
    73    16    10   am
    74    96    98   ar
    75    48    49    1
    76    48    47    1
    77   119   118    1
    78    65    62    1
    79    10     9    1
    80    63    62    1
    81   118   112   am
    82    12     9    1
    83    12    13    1
    84    30    31    1
    85    31    32    1
    86    47    40   am
    87    14    13    1
    88    25    26    1
    89    62    61    1
    90     9     8    1
    91    29    26    1
    92   110   111    1
    93    13    15    1
    94    32    33    2
    95    32    38   am
    96    61    55   am
    97    26    27    1
    98   112   111    1
    99   112   113    2
   100    27    28    2
   101   189   188    1
   102    40    41    2
   103    40    39    1
   104    38    39    1
   105   134   135    2
   106   134   133    1
   107   114   111    1
   108   114   115    1
   109   186   188   ar
   110   186   184   ar
   111    53    54    1
   112   188   187   ar
   113   136   133    1
   114   136   137    1
   115   117   115    1
   116    55    56    2
   117    55    54    1
   118    39    42    1
   119   132   133    1
   120   115   116    1
   121    42    43    1
   122   138   137    1
   123   151   150    2
   124    54    57    1
   125   184   183   ar
   126   137   139    1
   127   146   145    1
   128   187   185   ar
   129   152   153    1
   130   152   154    1
   131   152   149    1
   132    43    44    1
   133   144   145    1
   134   144   141    1
   135   150   149    1
   136   150   155   am
   137    57    58    1
   138     6     5    1
   139   148   149    1
   140   148   142   am
   141   183   185   ar
   142   183   182    1
   143   145   147    1
   144     5     7    1
   145     5     2    1
   146   161   160    2
   147   157   156    1
   148   157   158    2
   149     3     2    1
   150     3     4    2
   151   156   155    1
   152   156   159    1
   153   141   142    1
   154   141   140    1
   155    58    60    1
   156    58    59    1
   157    44    46   ar
   158    44    45   ar
   159   142   143    2
   160     2     1    1
   161   182   179    1
   162   160   159    1
   163   160   162   am
   164   177   175    1
   165   170   168    1
   166   178   179    1
   167   176   175    1
   168   179   180    1
   169   175   172    1
   170   168   167    1
   171   168   169    1
   172   180   181    2
   173   180   190   am
   174   167   164    1
   175   172   173    1
   176   172   171    1
   177   174   173    2
   178   190   191    1
   179   193   192    2
   180   199   198    1
   181   199   200    1
   182   166   165    2
   183   192   198   am
   184   192   191    1
   185   164   165    1
   186   164   163    1
   187   191   194    1
   188   211   210   ar
   189   211   209   ar
   190   210   208   ar
   191   209   207   ar
   192   200   201    2
   193   207   208   ar
   194   207   206    1
   195   194   195    1
   196   206   203    1
   197   195   197    1
   198   195   196    1
   199   203   202    1
   200   203   204    1
   201   204   205    2
