@<TRIPOS>MOLECULE
tmp/2gj4A01.pdb
 109 110 0 0 0
SMALL
GASTEIGER

@<TRIPOS>ATOM
      1  N         14.0430  118.1690   20.7530 N.3    46  HIS46      -0.1241
      2  CA        12.9610  117.8880   21.7160 C.3    46  HIS46       0.1621
      3  C         11.6620  118.6170   21.3300 C.2    46  HIS46       0.2264
      4  O         10.5600  118.0850   21.4810 O.2    46  HIS46      -0.2867
      5  CB        13.3730  118.2730   23.1500 C.3    46  HIS46       0.0745
      6  CG        14.2180  117.2450   23.8440 C.ar   46  HIS46       0.0817
      7  ND1       15.5790  117.1460   23.6560 N.ar   46  HIS46      -0.2268
      8  CD2       13.8890  116.2690   24.7270 C.ar   46  HIS46       0.1154
      9  CE1       16.0530  116.1490   24.3890 C.ar   46  HIS46       0.1986
     10  NE2       15.0480  115.6060   25.0540 N.ar   46  HIS46      -0.2212
     11  N         10.3000  116.6490   18.4470 N.3    49  ARG49      -0.1245
     12  CA         9.8730  115.3590   18.9810 C.3    49  ARG49       0.1563
     13  C          8.4980  115.4150   19.6470 C.2    49  ARG49       0.2260
     14  O          7.7070  114.5020   19.4840 O.2    49  ARG49      -0.2867
     15  CB        10.9180  114.8140   19.9670 C.3    49  ARG49       0.0307
     16  CG        10.6560  113.4050   20.4900 C.3    49  ARG49       0.0489
     17  CD        11.6930  113.0190   21.5440 C.3    49  ARG49       0.2205
     18  NE        11.3470  113.4780   22.8910 N.pl3  49  ARG49      -0.0865
     19  CZ        12.0990  113.2670   23.9740 C.cat  49  ARG49       0.5346
     20  NH1       13.2560  112.6120   23.8780 N.pl3  49  ARG49       0.1354
     21  NH2       11.6990  113.7120   25.1600 N.pl3  49  ARG49       0.1354
     22  N          5.4580  114.5440   17.6200 N.3    52  LEU52      -0.1231
     23  CA         5.2140  113.1500   17.2440 C.3    52  LEU52       0.1693
     24  C          4.3380  112.3680   18.2200 C.2    52  LEU52       0.2591
     25  O          3.7590  111.3550   17.8350 O.2    52  LEU52      -0.2718
     26  CB         6.5440  112.3950   17.1220 C.3    52  LEU52       0.0284
     27  CG         7.4460  112.7010   15.9340 C.3    52  LEU52       0.0019
     28  CD1        8.8320  112.1150   16.1900 C.3    52  LEU52       0.0001
     29  CD2        6.8520  112.1230   14.6510 C.3    52  LEU52       0.0001
     30  N          4.2770  112.7990   19.4820 N.am   53  VAL53      -0.1980
     31  CA         3.7650  111.9380   20.5600 C.3    53  VAL53       0.1595
     32  C          2.2750  111.5950   20.4420 C.2    53  VAL53       0.2287
     33  O          1.9030  110.4250   20.5470 O.2    53  VAL53      -0.2864
     34  CB         4.0410  112.5350   21.9670 C.3    53  VAL53       0.0276
     35  CG1        3.3800  111.6780   23.0510 C.3    53  VAL53       0.0022
     36  CG2        5.5380  112.6550   22.2100 C.3    53  VAL53       0.0022
     37  N          1.7320  109.1830   17.5800 N.3    56  TRP56      -0.1241
     38  CA         2.2760  107.8620   17.9140 C.3    56  TRP56       0.1605
     39  C          1.3270  107.0840   18.8260 C.2    56  TRP56       0.2264
     40  O          1.0320  105.9140   18.5710 O.2    56  TRP56      -0.2867
     41  CB         3.6630  108.0060   18.5680 C.3    56  TRP56       0.0550
     42  CG         4.5850  106.8130   18.4370 C.ar   56  TRP56       0.0003
     43  CD1        4.4110  105.6960   17.6520 C.ar   56  TRP56       0.0946
     44  CD2        5.8620  106.6540   19.0750 C.ar   56  TRP56       0.0152
     45  NE1        5.4960  104.8490   17.7850 N.ar   56  TRP56      -0.2442
     46  CE2        6.4020  105.4200   18.6420 C.ar   56  TRP56       0.0810
     47  CE3        6.6030  107.4370   19.9690 C.ar   56  TRP56       0.0012
     48  CZ2        7.6420  104.9480   19.0850 C.ar   56  TRP56       0.0191
     49  CZ3        7.8430  106.9610   20.4090 C.ar   56  TRP56       0.0001
     50  CH2        8.3420  105.7280   19.9650 C.ar   56  TRP56       0.0015
     51  N         20.4210  110.0500   22.7550 N.3   176  ASN176     -0.1226
     52  CA        19.6270  109.9420   21.5290 C.3   176  ASN176      0.1770
     53  C         18.1840  110.3440   21.8300 C.2   176  ASN176      0.2439
     54  O         17.4500  109.5690   22.4330 O.2   176  ASN176     -0.2733
     55  CB        19.6820  108.4990   21.0040 C.3   176  ASN176      0.1168
     56  CG        18.8000  108.2690   19.7860 C.2   176  ASN176      0.2627
     57  OD1       18.3260  109.2190   19.1500 O.2   176  ASN176     -0.2716
     58  ND2       18.5790  106.9890   19.4470 N.am  176  ASN176     -0.0877
     59  N         17.7800  111.5720   21.4340 N.am  177  PRO177     -0.2718
     60  CA        16.4030  112.0180   21.7190 C.3   177  PRO177      0.1535
     61  C         15.3380  111.1570   21.0330 C.2   177  PRO177      0.2599
     62  O         14.2240  111.0780   21.5100 O.2   177  PRO177     -0.2715
     63  CB        16.3460  113.4630   21.1770 C.3   177  PRO177      0.0310
     64  CG        17.7170  113.8280   20.7790 C.3   177  PRO177      0.0237
     65  CD        18.5650  112.5850   20.7100 C.3   177  PRO177      0.0939
     66  N         15.7130  110.4820   19.9510 N.am  178  TRP178     -0.1960
     67  CA        14.7610  109.8050   19.0800 C.3   178  TRP178      0.1771
     68  C         14.5120  108.3280   19.4140 C.2   178  TRP178      0.2620
     69  O         13.9820  107.5980   18.5750 O.2   178  TRP178     -0.2715
     70  CB        15.2320  109.9260   17.6210 C.3   178  TRP178      0.0590
     71  CG        15.6180  111.3360   17.1970 C.ar  178  TRP178      0.0006
     72  CD1       16.8740  111.8090   16.9520 C.ar  178  TRP178      0.0946
     73  CD2       14.7230  112.4270   16.9600 C.ar  178  TRP178      0.0152
     74  NE1       16.8190  113.1360   16.5890 N.ar  178  TRP178     -0.2442
     75  CE2       15.5090  113.5410   16.5850 C.ar  178  TRP178      0.0810
     76  CE3       13.3340  112.5660   17.0260 C.ar  178  TRP178      0.0012
     77  CZ2       14.9390  114.7890   16.2620 C.ar  178  TRP178      0.0191
     78  CZ3       12.7720  113.8000   16.7120 C.ar  178  TRP178      0.0001
     79  CH2       13.5790  114.8940   16.3380 C.ar  178  TRP178      0.0015
     80  N         14.9130  107.8750   20.6040 N.am  179  GLU179     -0.1963
     81  CA        14.5730  106.5360   21.0840 C.3   179  GLU179      0.1733
     82  C         13.8550  106.6630   22.4250 C.2   179  GLU179      0.2616
     83  O         14.1470  107.5750   23.1960 O.2   179  GLU179     -0.2715
     84  CB        15.8470  105.6750   21.2480 C.3   179  GLU179      0.0429
     85  CG        16.7610  106.1700   22.3690 C.3   179  GLU179      0.1163
     86  CD        18.0860  105.4260   22.4770 C.2   179  GLU179      0.3649
     87  OE1       18.4680  104.7290   21.5080 O.co2 179  GLU179     -0.2457
     88  OE2       18.7480  105.5660   23.5420 O.co2 179  GLU179     -0.2457
     89  N         12.9260  105.7470   22.6930 N.am  180  LYS180     -0.1963
     90  CA        12.2890  105.6120   24.0060 C.3   180  LYS180      0.1728
     91  C         12.4770  104.1820   24.5400 C.2   180  LYS180      0.2616
     92  O         11.9190  103.2230   23.9960 O.2   180  LYS180     -0.2715
     93  CB        10.7920  105.9460   23.9220 C.3   180  LYS180      0.0311
     94  CG        10.0080  105.7990   25.2490 C.3   180  LYS180      0.0038
     95  CD        10.4570  106.8020   26.3130 C.3   180  LYS180      0.0206
     96  CE         9.7430  106.5730   27.6270 C.3   180  LYS180      0.1093
     97  NZ        10.2940  105.4270   28.3930 N.3   180  LYS180     -0.1314
     98  N         13.2620  104.0500   25.6070 N.am  181  ALA181     -0.1977
     99  CA        13.4290  102.7720   26.2970 C.3   181  ALA181      0.1597
    100  C         12.0780  102.2680   26.8210 C.2   181  ALA181      0.2287
    101  O         11.2400  103.0560   27.2590 O.2   181  ALA181     -0.2864
    102  CB        14.4440  102.9150   27.4460 C.3   181  ALA181      0.0319
    103  N         10.1830  106.3190   16.7320 N.3   218  PRO218     -0.2116
    104  CA         9.0230  106.6450   15.8880 C.3   218  PRO218      0.1372
    105  C          9.3670  106.7450   14.4020 C.2   218  PRO218      0.2244
    106  O         10.4350  107.2320   14.0540 O.2   218  PRO218     -0.2868
    107  CB         8.5830  108.0130   16.4230 C.3   218  PRO218      0.0268
    108  CG         9.8400  108.6300   16.9430 C.3   218  PRO218      0.0207
    109  CD        10.6210  107.4820   17.5320 C.3   218  PRO218      0.0892
@<TRIPOS>BOND
     1   106   105    2
     2   105   104    1
     3    29    27    1
     4   104   107    1
     5   104   103    1
     6    27    28    1
     7    27    26    1
     8    77    79   ar
     9    77    75   ar
    10    79    78   ar
    11   107   108    1
    12    75    74   ar
    13    75    73   ar
    14    74    72   ar
    15    78    76   ar
    16   103   109    1
    17   108   109    1
    18    72    71   ar
    19    73    76   ar
    20    73    71   ar
    21    26    23    1
    22    71    70    1
    23    23    22    1
    24    23    24    1
    25    37    38    1
    26    70    67    1
    27    43    45   ar
    28    43    42   ar
    29    45    46   ar
    30    25    24    2
    31    38    41    1
    32    38    39    1
    33    24    30   am
    34    42    41    1
    35    42    44   ar
    36    11    12    1
    37    40    39    2
    38    69    68    2
    39    46    44   ar
    40    46    48   ar
    41    12    13    1
    42    12    15    1
    43    44    47   ar
    44    67    68    1
    45    67    66    1
    46    48    50   ar
    47    57    56    2
    48    68    80   am
    49    58    56   am
    50    30    31    1
    51    14    13    2
    52    56    55    1
    53    66    61   am
    54    50    49   ar
    55    15    16    1
    56    47    49   ar
    57    32    33    2
    58    32    31    1
    59    16    17    1
    60    31    34    1
    61    80    81    1
    62    65    64    1
    63    65    59    1
    64     1     2    1
    65    64    63    1
    66    55    52    1
    67    61    62    2
    68    61    60    1
    69    81    84    1
    70    81    82    1
    71    63    60    1
    72    84    85    1
    73     3     4    2
    74     3     2    1
    75    59    60    1
    76    59    53   am
    77    87    86   ar
    78    52    53    1
    79    52    51    1
    80    17    18    1
    81     2     5    1
    82    53    54    2
    83    34    36    1
    84    34    35    1
    85    85    86    1
    86    82    89   am
    87    82    83    2
    88    86    88   ar
    89    89    90    1
    90    18    19    2
    91     5     6    1
    92     7     6   ar
    93     7     9   ar
    94     6     8   ar
    95    20    19    1
    96    93    90    1
    97    93    94    1
    98    19    21    1
    99    92    91    2
   100    90    91    1
   101     9    10   ar
   102    91    98   am
   103     8    10   ar
   104    94    95    1
   105    98    99    1
   106    99   100    1
   107    99   102    1
   108    95    96    1
   109   100   101    2
   110    96    97    1
