@<TRIPOS>MOLECULE
tmp/2gj5A00.pdb
 165 148 0 0 0
SMALL
GASTEIGER

@<TRIPOS>ATOM
      1  N          1.5760    2.9270   30.9360 N.3    35  SER35      -0.1217
      2  CA         1.3910    2.1680   29.7030 C.3    35  SER35       0.1889
      3  C         -0.0680    2.1340   29.2660 C.2    35  SER35       0.2288
      4  O         -0.4080    1.4810   28.2830 O.2    35  SER35      -0.2866
      5  CB         1.8960    0.7370   29.8750 C.3    35  SER35       0.2089
      6  OG         1.1150    0.0430   30.8260 O.3    35  SER35      -0.2183
      7  N         -3.5210    2.5360   27.5500 N.3    37  PRO37      -0.2102
      8  CA        -3.7680    2.7050   26.1140 C.3    37  PRO37       0.1504
      9  C         -3.6960    4.1210   25.5370 C.2    37  PRO37       0.2575
     10  O         -3.0240    4.3400   24.5280 O.2    37  PRO37      -0.2718
     11  CB        -5.1430    2.0650   25.9240 C.3    37  PRO37       0.0282
     12  CG        -5.7820    2.2330   27.2570 C.3    37  PRO37       0.0208
     13  CD        -4.6600    1.8640   28.1910 C.3    37  PRO37       0.0893
     14  N         -4.3810    5.0780   26.1550 N.am   38  LEU38      -0.1980
     15  CA        -4.3620    6.4420   25.6350 C.3    38  LEU38       0.1596
     16  C         -3.4140    7.4000   26.3460 C.2    38  LEU38       0.2287
     17  O         -3.5160    8.6150   26.1870 O.2    38  LEU38      -0.2864
     18  CB        -5.7720    7.0250   25.6340 C.3    38  LEU38       0.0297
     19  CG        -6.7550    6.3230   24.6940 C.3    38  LEU38       0.0022
     20  CD1       -8.0690    7.1040   24.6650 C.3    38  LEU38       0.0001
     21  CD2       -6.1680    6.2140   23.2970 C.3    38  LEU38       0.0001
     22  N         -0.6990    9.0010   25.9680 N.3    40  VAL40      -0.1245
     23  CA         0.2600    9.4280   24.9600 C.3    40  VAL40       0.1561
     24  C          0.7190   10.8610   25.1770 C.2    40  VAL40       0.2260
     25  O         -0.0320   11.6980   25.6840 O.2    40  VAL40      -0.2867
     26  CB        -0.3350    9.3020   23.5320 C.3    40  VAL40       0.0252
     27  CG1       -0.6200    7.8340   23.2220 C.3    40  VAL40       0.0019
     28  CG2       -1.6150   10.1290   23.4210 C.3    40  VAL40       0.0019
     29  N          2.3550   14.1800   23.2390 N.3    42  VAL42      -0.1245
     30  CA         2.5850   14.7880   21.9450 C.3    42  VAL42       0.1561
     31  C          3.9010   15.5450   21.8550 C.2    42  VAL42       0.2260
     32  O          4.2430   16.3280   22.7420 O.2    42  VAL42      -0.2867
     33  CB         1.4490   15.7430   21.5860 C.3    42  VAL42       0.0252
     34  CG1        1.6860   16.3050   20.2010 C.3    42  VAL42       0.0019
     35  CG2        0.1070   15.0110   21.6550 C.3    42  VAL42       0.0019
     36  N          3.3740   18.4580   15.8110 N.3    45  LEU45      -0.1245
     37  CA         2.2700   18.2660   14.8880 C.3    45  LEU45       0.1561
     38  C          2.7950   18.5870   13.4950 C.2    45  LEU45       0.2260
     39  O          3.3340   19.6640   13.2560 O.2    45  LEU45      -0.2867
     40  CB         1.0710   19.1590   15.2570 C.3    45  LEU45       0.0270
     41  CG         0.2670   18.6850   16.4890 C.3    45  LEU45       0.0019
     42  CD1       -1.0810   19.4180   16.5830 C.3    45  LEU45       0.0001
     43  CD2        0.0270   17.1880   16.3810 C.3    45  LEU45       0.0001
     44  N         -2.7110   15.2640    8.6540 N.3    53  LEU53      -0.1245
     45  CA        -1.9970   15.6590    9.8650 C.3    53  LEU53       0.1561
     46  C         -1.1650   14.5610   10.5180 C.2    53  LEU53       0.2260
     47  O         -1.7110   13.5760   11.0180 O.2    53  LEU53      -0.2867
     48  CB        -3.0020   16.2050   10.8880 C.3    53  LEU53       0.0270
     49  CG        -2.4340   16.7320   12.2070 C.3    53  LEU53       0.0019
     50  CD1       -1.5350   17.9330   11.9490 C.3    53  LEU53       0.0001
     51  CD2       -3.5730   17.1050   13.1220 C.3    53  LEU53       0.0001
     52  N          1.2130   13.0490   13.4330 N.3    55  ILE55      -0.1245
     53  CA         1.3840   13.2290   14.8690 C.3    55  ILE55       0.1561
     54  C          2.6300   12.5230   15.3840 C.2    55  ILE55       0.2260
     55  O          2.7630   11.3040   15.2560 O.2    55  ILE55      -0.2867
     56  CB         0.1750   12.6810   15.6800 C.3    55  ILE55       0.0252
     57  CG1       -1.1460   13.1530   15.0660 C.3    55  ILE55       0.0019
     58  CG2        0.2770   13.1470   17.1220 C.3    55  ILE55       0.0019
     59  CD1       -1.2580   14.6400   14.9300 C.3    55  ILE55       0.0001
     60  N          4.5770   11.5330   18.6310 N.3    57  LEU57      -0.1245
     61  CA         4.3180   11.4140   20.0560 C.3    57  LEU57       0.1561
     62  C          5.1410   10.3620   20.7880 C.2    57  LEU57       0.2260
     63  O          5.9020    9.6130   20.1870 O.2    57  LEU57      -0.2867
     64  CB         2.8250   11.1420   20.2640 C.3    57  LEU57       0.0270
     65  CG         2.2530    9.8830   19.6020 C.3    57  LEU57       0.0019
     66  CD1        2.4420    8.6930   20.5310 C.3    57  LEU57       0.0001
     67  CD2        0.7670   10.0800   19.3010 C.3    57  LEU57       0.0001
     68  N          4.9560    7.1770   23.6720 N.3    59  LYS59      -0.1245
     69  CA         4.0920    6.2260   24.3590 C.3    59  LYS59       0.1561
     70  C          4.9650    5.2640   25.1550 C.2    59  LYS59       0.2260
     71  O          5.9980    4.8030   24.6690 O.2    59  LYS59      -0.2867
     72  CB         3.2340    5.4390   23.3620 C.3    59  LYS59       0.0271
     73  CG         2.3760    4.3650   24.0190 C.3    59  LYS59       0.0035
     74  CD         1.3760    4.9800   24.9830 C.3    59  LYS59       0.0206
     75  CE         1.0730    4.0590   26.1600 C.3    59  LYS59       0.1093
     76  NZ         0.4460    2.7780   25.7530 N.3    59  LYS59      -0.1314
     77  N          5.6040    1.9690   26.0180 N.3    61  GLU61      -0.1245
     78  CA         5.3760    0.5630   25.7150 C.3    61  GLU61       0.1567
     79  C          6.5720   -0.1860   26.2880 C.2    61  GLU61       0.2260
     80  O          7.6870    0.3410   26.3050 O.2    61  GLU61      -0.2867
     81  CB         5.3120    0.3360   24.2020 C.3    61  GLU61       0.0388
     82  CG         4.2940    1.1940   23.4680 C.3    61  GLU61       0.1160
     83  CD         4.3820    1.0340   21.9590 C.2    61  GLU61       0.3649
     84  OE1        3.7170    1.8080   21.2360 O.co2  61  GLU61      -0.2457
     85  OE2        5.1170    0.1340   21.4970 O.co2  61  GLU61      -0.2457
     86  N          6.4590    7.4080   18.6200 N.3    68  LYS68      -0.1245
     87  CA         5.4550    6.9700   17.6530 C.3    68  LYS68       0.1561
     88  C          5.1530    8.0200   16.5890 C.2    68  LYS68       0.2260
     89  O          5.1830    9.2170   16.8560 O.2    68  LYS68      -0.2867
     90  CB         4.1580    6.6160   18.3840 C.3    68  LYS68       0.0271
     91  CG         3.9730    5.1420   18.6790 C.3    68  LYS68       0.0035
     92  CD         3.6180    4.3860   17.4080 C.3    68  LYS68       0.0206
     93  CE         3.3090    2.9250   17.6910 C.3    68  LYS68       0.1093
     94  NZ         2.9290    2.1930   16.4500 N.3    68  LYS68      -0.1314
     95  N          2.1500    8.9000   14.0430 N.3    70  ILE70      -0.1245
     96  CA         0.7890    8.6240   13.6010 C.3    70  ILE70       0.1561
     97  C          0.2960    9.6420   12.5820 C.2    70  ILE70       0.2260
     98  O          0.6210   10.8260   12.6560 O.2    70  ILE70      -0.2867
     99  CB        -0.1900    8.6070   14.7970 C.3    70  ILE70       0.0252
    100  CG1       -0.0280    7.3020   15.5830 C.3    70  ILE70       0.0019
    101  CG2       -1.6200    8.7520   14.3070 C.3    70  ILE70       0.0019
    102  CD1        1.3320    7.1110   16.2330 C.3    70  ILE70       0.0001
    103  N         -7.7270    8.8090   12.0480 N.3    83  ILE83      -0.1245
    104  CA        -6.5030    8.0340   12.0800 C.3    83  ILE83       0.1561
    105  C         -6.8520    6.5970   11.7310 C.2    83  ILE83       0.2260
    106  O         -7.7790    6.0160   12.2990 O.2    83  ILE83      -0.2867
    107  CB        -5.8270    8.1160   13.4720 C.3    83  ILE83       0.0252
    108  CG1       -6.7410    7.5460   14.5460 C.3    83  ILE83       0.0019
    109  CG2       -5.5220    9.5680   13.8130 C.3    83  ILE83       0.0019
    110  CD1       -6.2120    7.7620   15.9410 C.3    83  ILE83       0.0001
    111  N         -6.7560    3.2530   12.2020 N.3    85  ALA85      -0.1231
    112  CA        -6.4540    2.2370   13.2010 C.3    85  ALA85       0.1694
    113  C         -7.3760    1.0470   12.9770 C.2    85  ALA85       0.2591
    114  O         -8.2330    1.0800   12.0930 O.2    85  ALA85      -0.2718
    115  CB        -6.6580    2.8000   14.6000 C.3    85  ALA85       0.0304
    116  N         -7.1970   -0.0020   13.7760 N.am   86  LEU86      -0.1980
    117  CA        -8.0230   -1.2000   13.6640 C.3    86  LEU86       0.1596
    118  C         -9.4930   -0.8120   13.5490 C.2    86  LEU86       0.2287
    119  O        -10.3060   -1.5450   12.9810 O.2    86  LEU86      -0.2864
    120  CB        -7.8240   -2.0940   14.8890 C.3    86  LEU86       0.0297
    121  CG        -8.8740   -3.1900   15.0830 C.3    86  LEU86       0.0022
    122  CD1       -8.8870   -4.1130   13.8810 C.3    86  LEU86       0.0001
    123  CD2       -8.5750   -3.9610   16.3530 C.3    86  LEU86       0.0001
    124  N        -11.1440    5.9370   14.4340 N.3    89  ASN89      -0.1240
    125  CA       -10.9340    6.8790   15.5230 C.3    89  ASN89       0.1653
    126  C        -10.8130    8.2900   14.9760 C.2    89  ASN89       0.2266
    127  O         -9.9820    8.5710   14.1080 O.2    89  ASN89      -0.2867
    128  CB        -9.6770    6.5190   16.3170 C.3    89  ASN89       0.1155
    129  CG        -9.8980    5.3540   17.2620 C.2    89  ASN89       0.2627
    130  OD1      -10.2540    4.2550   16.8380 O.2    89  ASN89      -0.2716
    131  ND2       -9.6910    5.5920   18.5520 N.am   89  ASN89      -0.0877
    132  N        -10.2230   12.4580   15.4020 N.3    91  VAL91      -0.1245
    133  CA        -9.4680   13.4180   16.1730 C.3    91  VAL91       0.1561
    134  C        -10.1660   14.7290   15.8880 C.2    91  VAL91       0.2260
    135  O        -10.3850   15.0780   14.7360 O.2    91  VAL91      -0.2867
    136  CB        -7.9900   13.4980   15.7380 C.3    91  VAL91       0.0252
    137  CG1       -7.3490   14.7160   16.3480 C.3    91  VAL91       0.0019
    138  CG2       -7.2430   12.2700   16.1990 C.3    91  VAL91       0.0019
    139  N         -7.7210   19.3370   21.8280 N.3   104  PHE104     -0.1241
    140  CA        -8.2080   18.3490   20.8700 C.3   104  PHE104      0.1605
    141  C         -8.6890   17.1360   21.6420 C.2   104  PHE104      0.2264
    142  O         -8.3030   16.9230   22.7820 O.2   104  PHE104     -0.2867
    143  CB        -7.0780   17.9400   19.9190 C.3   104  PHE104      0.0534
    144  CG        -6.1290   16.9240   20.5050 C.ar  104  PHE104     -0.0203
    145  CD1       -6.4480   15.5630   20.4910 C.ar  104  PHE104     -0.0042
    146  CD2       -4.9290   17.3270   21.0900 C.ar  104  PHE104     -0.0042
    147  CE1       -5.5890   14.6210   21.0510 C.ar  104  PHE104     -0.0003
    148  CE2       -4.0600   16.3950   21.6540 C.ar  104  PHE104     -0.0003
    149  CZ        -4.3870   15.0390   21.6370 C.ar  104  PHE104     -0.0000
    150  N         -9.8520   12.7830   21.2430 N.3   106  MET106     -0.1245
    151  CA        -9.7320   11.5670   20.4570 C.3   106  MET106      0.1570
    152  C        -10.9960   10.7890   20.8290 C.2   106  MET106      0.2261
    153  O        -11.2630   10.5180   22.0040 O.2   106  MET106     -0.2867
    154  CB        -8.4610   10.8150   20.8700 C.3   106  MET106      0.0387
    155  CG        -7.8710    9.8880   19.8150 C.3   106  MET106      0.0595
    156  SD        -8.8380    8.4020   19.5180 S.3   106  MET106     -0.1393
    157  CE        -8.4880    7.4680   21.0030 C.3   106  MET106      0.0692
    158  N         -2.8110   21.0200   24.9410 N.3   121  LEU121     -0.1245
    159  CA        -1.4660   21.1990   24.4240 C.3   121  LEU121      0.1561
    160  C         -1.0350   22.6400   24.4840 C.2   121  LEU121      0.2260
    161  O         -1.8080   23.5560   24.1780 O.2   121  LEU121     -0.2867
    162  CB        -1.3840   20.7570   22.9660 C.3   121  LEU121      0.0270
    163  CG        -1.7900   19.3280   22.6210 C.3   121  LEU121      0.0019
    164  CD1       -1.7280   19.1800   21.1060 C.3   121  LEU121      0.0001
    165  CD2       -0.8920   18.3170   23.3160 C.3   121  LEU121      0.0001
@<TRIPOS>BOND
     1    44    45    1
     2    45    46    1
     3    45    48    1
     4    46    47    2
     5    48    49    1
     6   105   104    1
     7   105   106    2
     8    50    49    1
     9   103   104    1
    10   104   107    1
    11   114   113    2
    12   111   112    1
    13    49    51    1
    14    97    98    2
    15    97    96    1
    16   113   112    1
    17   113   116   am
    18   119   118    2
    19   112   115    1
    20    39    38    2
    21    52    53    1
    22   107   109    1
    23   107   108    1
    24    38    37    1
    25   118   117    1
    26    96    95    1
    27    96    99    1
    28   117   116    1
    29   117   120    1
    30   122   121    1
    31   127   126    2
    32   101    99    1
    33   124   125    1
    34   108   110    1
    35   135   134    2
    36    99   100    1
    37    53    54    1
    38    53    56    1
    39    37    40    1
    40    37    36    1
    41   120   121    1
    42    59    57    1
    43   126   125    1
    44    57    56    1
    45   121   123    1
    46    55    54    2
    47    40    41    1
    48   132   133    1
    49   125   128    1
    50   100   102    1
    51    56    58    1
    52   136   133    1
    53   136   138    1
    54   136   137    1
    55   134   133    1
    56   128   129    1
    57    43    41    1
    58    94    93    1
    59    41    42    1
    60    88    89    2
    61    88    87    1
    62   130   129    2
    63   129   131   am
    64    92    93    1
    65    92    91    1
    66    87    90    1
    67    87    86    1
    68    90    91    1
    69    60    61    1
    70    67    65    1
    71   156   155    1
    72   156   157    1
    73    65    64    1
    74    65    66    1
    75   155   154    1
    76   143   144    1
    77   143   140    1
    78    61    64    1
    79    61    62    1
    80    63    62    2
    81    34    33    1
    82   151   152    1
    83   151   154    1
    84   151   150    1
    85   145   144   ar
    86   145   147   ar
    87   144   146   ar
    88   152   153    2
    89   140   141    1
    90   140   139    1
    91   147   149   ar
    92   146   148   ar
    93   164   163    1
    94    84    83   ar
    95    85    83   ar
    96    33    35    1
    97    33    30    1
    98   149   148   ar
    99   141   142    2
   100    31    30    1
   101    31    32    2
   102    30    29    1
   103    83    82    1
   104   163   162    1
   105   163   165    1
   106   162   159    1
   107    27    26    1
   108    21    19    1
   109    72    73    1
   110    72    69    1
   111    28    26    1
   112    82    81    1
   113    26    23    1
   114    68    69    1
   115    73    74    1
   116   161   160    2
   117    81    78    1
   118    69    70    1
   119   159   160    1
   120   159   158    1
   121    10     9    2
   122    20    19    1
   123    71    70    2
   124    19    18    1
   125    23    24    1
   126    23    22    1
   127    74    75    1
   128    24    25    2
   129     9     8    1
   130     9    14   am
   131    18    15    1
   132    15    14    1
   133    15    16    1
   134    78    77    1
   135    78    79    1
   136    76    75    1
   137    11     8    1
   138    11    12    1
   139     8     7    1
   140    17    16    2
   141    79    80    2
   142    12    13    1
   143     7    13    1
   144     4     3    2
   145     3     2    1
   146     2     5    1
   147     2     1    1
   148     5     6    1
