@<TRIPOS>MOLECULE
tmp/2gj5A01.pdb
 91 89 0 0 0
SMALL
GASTEIGER

@<TRIPOS>ATOM
      1  N         -7.2880   14.1280   29.7540 N.3    24  ALA24      -0.1245
      2  CA        -8.4160   13.5640   30.4550 C.3    24  ALA24       0.1562
      3  C         -9.0780   12.5260   29.5630 C.2    24  ALA24       0.2260
      4  O         -8.9130   12.5420   28.3320 O.2    24  ALA24      -0.2867
      5  CB        -9.3900   14.6640   30.8210 C.3    24  ALA24       0.0290
      6  N        -10.7110   23.2200   31.0400 N.3   136  ASP136     -0.1225
      7  CA       -11.7070   22.8450   32.0400 C.3   136  ASP136      0.1805
      8  C        -13.1170   23.1300   31.5370 C.2   136  ASP136      0.2597
      9  O        -13.9820   22.2800   31.6190 O.2   136  ASP136     -0.2718
     10  CB       -11.4860   23.5960   33.3530 C.3   136  ASP136      0.1424
     11  CG       -10.3040   23.0710   34.1310 C.2   136  ASP136      0.3668
     12  OD1      -10.1780   21.8350   34.2560 O.co2 136  ASP136     -0.2456
     13  OD2       -9.5070   23.8940   34.6280 O.co2 136  ASP136     -0.2456
     14  N        -13.3460   24.3260   31.0140 N.am  137  LYS137     -0.1979
     15  CA       -14.6620   24.6650   30.5200 C.3   137  LYS137      0.1596
     16  C        -15.1090   23.6550   29.4770 C.2   137  LYS137      0.2287
     17  O        -16.1790   23.0640   29.5940 O.2   137  LYS137     -0.2864
     18  CB       -14.6660   26.0730   29.9210 C.3   137  LYS137      0.0298
     19  CG       -14.3160   27.1530   30.9220 C.3   137  LYS137      0.0038
     20  CD       -15.0860   26.9590   32.2240 C.3   137  LYS137      0.0206
     21  CE       -14.5510   27.8440   33.3440 C.3   137  LYS137      0.1093
     22  NZ       -15.2070   27.5310   34.6480 N.3   137  LYS137     -0.1314
     23  N        -14.3400   20.7850   29.0990 N.3   139  LEU139     -0.1231
     24  CA       -14.5670   19.4700   29.7050 C.3   139  LEU139      0.1693
     25  C        -15.8680   19.3650   30.4920 C.2   139  LEU139      0.2591
     26  O        -16.3700   18.2710   30.7040 O.2   139  LEU139     -0.2718
     27  CB       -13.3950   19.1010   30.6280 C.3   139  LEU139      0.0284
     28  CG       -12.3020   18.1250   30.1680 C.3   139  LEU139      0.0019
     29  CD1      -11.9980   18.2900   28.6840 C.3   139  LEU139      0.0001
     30  CD2      -11.0540   18.3520   31.0230 C.3   139  LEU139      0.0001
     31  N        -16.4040   20.4960   30.9290 N.am  140  LYS140     -0.1980
     32  CA       -17.6500   20.5140   31.7010 C.3   140  LYS140      0.1596
     33  C        -18.7500   19.6100   31.1320 C.2   140  LYS140      0.2287
     34  O        -19.3460   18.8040   31.8480 O.2   140  LYS140     -0.2864
     35  CB       -18.2010   21.9380   31.7940 C.3   140  LYS140      0.0298
     36  CG       -17.3500   22.8940   32.6010 C.3   140  LYS140      0.0038
     37  CD       -17.9480   24.3020   32.6120 C.3   140  LYS140      0.0206
     38  CE       -18.0230   24.8960   31.2110 C.3   140  LYS140      0.1093
     39  NZ       -18.6060   26.2640   31.2050 N.3   140  LYS140     -0.1314
     40  N        -18.4670   17.0950   29.1970 N.3   142  LEU142     -0.1231
     41  CA       -18.0470   15.7580   28.8020 C.3   142  LEU142      0.1678
     42  C        -17.9590   14.8100   29.9910 C.2   142  LEU142      0.2434
     43  O        -17.6860   15.2300   31.1070 O.2   142  LEU142     -0.2733
     44  CB       -16.7030   15.8140   28.0650 C.3   142  LEU142      0.0284
     45  CG       -16.5990   16.7680   26.8640 C.3   142  LEU142      0.0019
     46  CD1      -15.2340   16.6140   26.2120 C.3   142  LEU142      0.0001
     47  CD2      -17.6980   16.4760   25.8540 C.3   142  LEU142      0.0001
     48  N        -18.1860   13.5070   29.7530 N.am  143  PRO143     -0.2718
     49  CA       -18.1500   12.4430   30.7660 C.3   143  PRO143      0.1535
     50  C        -16.7400   11.9670   31.1420 C.2   143  PRO143      0.2598
     51  O        -16.3680   10.8160   30.8860 O.2   143  PRO143     -0.2715
     52  CB       -18.9620   11.3390   30.1100 C.3   143  PRO143      0.0310
     53  CG       -18.5150   11.4740   28.6550 C.3   143  PRO143      0.0237
     54  CD       -18.5940   12.9680   28.4370 C.3   143  PRO143      0.0939
     55  N        -15.9510   12.8380   31.7500 N.am  144  MET144     -0.1964
     56  CA       -14.6050   12.4390   32.1230 C.3   144  MET144      0.1736
     57  C        -14.5750   11.8340   33.5260 C.2   144  MET144      0.2616
     58  O        -15.3880   12.1840   34.3870 O.2   144  MET144     -0.2715
     59  CB       -13.6610   13.6380   32.0200 C.3   144  MET144      0.0427
     60  CG       -13.6390   14.2770   30.6400 C.3   144  MET144      0.0599
     61  SD       -13.4620   13.0620   29.2940 S.3   144  MET144     -0.1393
     62  CE       -12.0270   13.7250   28.3820 C.3   144  MET144      0.0692
     63  N        -13.6610   10.9010   33.7540 N.am  145  HIS145     -0.1959
     64  CA       -13.5580   10.2860   35.0670 C.3   145  HIS145      0.1787
     65  C        -12.1350   10.2580   35.5730 C.2   145  HIS145      0.2620
     66  O        -11.8720    9.8530   36.7050 O.2   145  HIS145     -0.2715
     67  CB       -14.2020    8.9000   35.0520 C.3   145  HIS145      0.0785
     68  CG       -15.6910    8.9680   34.9570 C.ar  145  HIS145      0.0821
     69  ND1      -16.3610    8.9440   33.7530 N.ar  145  HIS145     -0.2267
     70  CD2      -16.6260    9.2380   35.9000 C.ar  145  HIS145      0.1154
     71  CE1      -17.6400    9.2020   33.9570 C.ar  145  HIS145      0.1986
     72  NE2      -17.8260    9.3870   35.2510 N.ar  145  HIS145     -0.2212
     73  N        -11.2340   10.7210   34.7130 N.am  146  ILE146     -0.1963
     74  CA        -9.8150   10.8500   35.0200 C.3   146  ILE146      0.1727
     75  C         -9.2430   12.0860   34.3130 C.2   146  ILE146      0.2616
     76  O         -9.5020   12.3220   33.1290 O.2   146  ILE146     -0.2715
     77  CB        -8.9860    9.6080   34.5990 C.3   146  ILE146      0.0290
     78  CG1       -7.5220    9.8290   35.0070 C.3   146  ILE146      0.0022
     79  CG2       -9.1060    9.3580   33.0870 C.3   146  ILE146      0.0023
     80  CD1       -6.6990    8.5490   35.0620 C.3   146  ILE146      0.0001
     81  N         -8.4700   12.8660   35.0620 N.am  147  ARG147     -0.1977
     82  CA        -7.8410   14.0870   34.5660 C.3   147  ARG147      0.1597
     83  C         -6.4190   14.1690   35.1340 C.2   147  ARG147      0.2287
     84  O         -6.2290   14.0960   36.3570 O.2   147  ARG147     -0.2864
     85  CB        -8.6770   15.2960   35.0130 C.3   147  ARG147      0.0334
     86  CG        -8.0290   16.6590   34.8810 C.3   147  ARG147      0.0492
     87  CD        -8.1660   17.2860   33.4990 C.3   147  ARG147      0.2205
     88  NE        -7.5890   18.6320   33.4520 N.pl3 147  ARG147     -0.0865
     89  CZ        -7.9650   19.6480   34.2290 C.cat 147  ARG147      0.5346
     90  NH1       -8.9300   19.4870   35.1230 N.pl3 147  ARG147      0.1354
     91  NH2       -7.3530   20.8230   34.1340 N.pl3 147  ARG147      0.1354
@<TRIPOS>BOND
     1    47    45    1
     2    46    45    1
     3    45    44    1
     4    44    41    1
     5     4     3    2
     6    62    61    1
     7    54    53    1
     8    54    48    1
     9    53    52    1
    10    29    28    1
    11    41    40    1
    12    41    42    1
    13    23    24    1
    14    61    60    1
    15    16    17    2
    16    16    15    1
    17     3     2    1
    18    24    25    1
    19    24    27    1
    20    48    42   am
    21    48    49    1
    22     1     2    1
    23    18    15    1
    24    18    19    1
    25    42    43    2
    26    52    49    1
    27    28    27    1
    28    28    30    1
    29     2     5    1
    30    25    26    2
    31    25    31   am
    32    15    14    1
    33    60    59    1
    34    49    50    1
    35    51    50    2
    36    19    20    1
    37    31    32    1
    38    14     8   am
    39     6     7    1
    40    33    32    1
    41    33    34    2
    42    50    55   am
    43    39    38    1
    44    38    37    1
    45     8     9    2
    46     8     7    1
    47    32    35    1
    48    55    56    1
    49    35    36    1
    50    59    56    1
    51     7    10    1
    52    56    57    1
    53    20    21    1
    54    36    37    1
    55    79    77    1
    56    76    75    2
    57    21    22    1
    58    10    11    1
    59    88    87    1
    60    88    89    2
    61    87    86    1
    62    57    63   am
    63    57    58    2
    64    69    71   ar
    65    69    68   ar
    66    63    64    1
    67    71    72   ar
    68    11    12   ar
    69    11    13   ar
    70    91    89    1
    71    89    90    1
    72    75    74    1
    73    75    81   am
    74    82    85    1
    75    82    81    1
    76    82    83    1
    77    77    78    1
    78    77    74    1
    79    73    74    1
    80    73    65   am
    81    86    85    1
    82    68    67    1
    83    68    70   ar
    84    78    80    1
    85    67    64    1
    86    64    65    1
    87    83    84    2
    88    72    70   ar
    89    65    66    2
