@<TRIPOS>MOLECULE
tmp/2gjaA00.pdb
 168 161 0 0 0
SMALL
GASTEIGER

@<TRIPOS>ATOM
      1  N          8.9550   -9.8740   31.5410 N.3    11  PRO11      -0.2102
      2  CA        10.2010   -9.1250   31.7300 C.3    11  PRO11       0.1504
      3  C         11.3890  -10.0350   31.9970 C.2    11  PRO11       0.2576
      4  O         11.2080  -11.1320   32.5640 O.2    11  PRO11      -0.2718
      5  CB         9.9090   -8.3220   32.9910 C.3    11  PRO11       0.0282
      6  CG         8.4150   -8.0230   32.9030 C.3    11  PRO11       0.0208
      7  CD         7.8950   -9.4320   32.4800 C.3    11  PRO11       0.0893
      8  N         12.5810   -9.5840   31.6160 N.am   12  ASN12      -0.1961
      9  CA        13.8380  -10.3340   31.8420 C.3    12  ASN12       0.1819
     10  C         13.9700  -11.6700   31.1020 C.2    12  ASN12       0.2621
     11  O         14.8960  -12.4570   31.3670 O.2    12  ASN12      -0.2715
     12  CB        14.1240  -10.5150   33.3400 C.3    12  ASN12       0.1195
     13  CG        14.7480   -9.2770   33.9530 C.2    12  ASN12       0.2630
     14  OD1       15.4050   -8.5030   33.2630 O.2    12  ASN12      -0.2716
     15  ND2       14.5640   -9.1000   35.2530 N.am   12  ASN12      -0.0877
     16  N         13.0850  -11.9090   30.1390 N.am   13  ALA13      -0.1963
     17  CA        13.1720  -13.1360   29.3720 C.3    13  ALA13       0.1728
     18  C         14.3850  -13.1640   28.4290 C.2    13  ALA13       0.2617
     19  O         14.8540  -14.2560   28.0490 O.2    13  ALA13      -0.2715
     20  CB        11.8780  -13.3650   28.5970 C.3    13  ALA13       0.0334
     21  N         14.8790  -11.9810   28.0500 N.am   14  GLY14      -0.1940
     22  CA        15.9950  -11.8720   27.1120 C.3    14  GLY14       0.2014
     23  C         15.5870  -11.3360   25.7380 C.2    14  GLY14       0.2639
     24  O         16.2940  -11.5440   24.7480 O.2    14  GLY14      -0.2714
     25  N         14.4680  -10.6110   25.6810 N.am   15  LYS15      -0.1963
     26  CA        13.9300  -10.1180   24.4090 C.3    15  LYS15       0.1728
     27  C         14.8770   -9.1060   23.7710 C.2    15  LYS15       0.2617
     28  O         15.1730   -9.1950   22.5820 O.2    15  LYS15      -0.2715
     29  CB        12.5440   -9.4930   24.6110 C.3    15  LYS15       0.0311
     30  CG        11.5360  -10.5160   25.2110 C.3    15  LYS15       0.0038
     31  CD        10.1480   -9.8750   25.3530 C.3    15  LYS15       0.0206
     32  CE        10.0600   -8.7570   26.3980 C.3    15  LYS15       0.1093
     33  NZ        10.6290   -9.0690   27.7550 N.3    15  LYS15      -0.1314
     34  N         15.3700   -8.1520   24.5550 N.am   16  SER16      -0.1936
     35  CA        16.2940   -7.1580   23.9580 C.3    16  SER16       0.2055
     36  C         17.6260   -7.8240   23.6040 C.2    16  SER16       0.2643
     37  O         18.2840   -7.4450   22.6090 O.2    16  SER16      -0.2714
     38  CB        16.5180   -6.0080   24.9190 C.3    16  SER16       0.2130
     39  OG        15.3070   -5.3060   25.1730 O.3    16  SER16      -0.2179
     40  N         18.0420   -8.7960   24.4230 N.am   17  SER17      -0.1949
     41  CA        19.2680   -9.5170   24.1440 C.3    17  SER17       0.1924
     42  C         19.1240  -10.2110   22.7880 C.2    17  SER17       0.2314
     43  O         20.0900  -10.2480   22.0050 O.2    17  SER17      -0.2863
     44  CB        19.5690  -10.5530   25.2340 C.3    17  SER17       0.2116
     45  OG        19.7500   -9.9030   26.4940 O.3    17  SER17      -0.2180
     46  N         19.0110   -1.4840   25.1320 N.3    29  ILE29      -0.1231
     47  CA        19.7020   -1.6020   26.4240 C.3    29  ILE29       0.1692
     48  C         19.2660   -2.9350   27.0590 C.2    29  ILE29       0.2592
     49  O         18.0640   -3.2640   27.0740 O.2    29  ILE29      -0.2718
     50  CB        19.3250   -0.4200   27.3410 C.3    29  ILE29       0.0266
     51  CG1       19.8940    0.8910   26.7630 C.3    29  ILE29       0.0019
     52  CG2       19.8560   -0.6290   28.7840 C.3    29  ILE29       0.0020
     53  CD1       19.2570    2.1660   27.3550 C.3    29  ILE29       0.0001
     54  N         20.2470   -3.6760   27.5800 N.am   30  VAL30      -0.1966
     55  CA        20.0170   -4.9200   28.2900 C.3    30  VAL30       0.1727
     56  C         20.5630   -4.7250   29.7060 C.2    30  VAL30       0.2617
     57  O         21.7010   -4.2350   29.8710 O.2    30  VAL30      -0.2715
     58  CB        20.7680   -6.0530   27.5700 C.3    30  VAL30       0.0290
     59  CG1       20.8310   -7.3160   28.4430 C.3    30  VAL30       0.0023
     60  CG2       20.1010   -6.3240   26.1780 C.3    30  VAL30       0.0023
     61  N         19.7490   -5.0370   30.7050 N.am   31  THR31      -0.1937
     62  CA        20.2200   -5.1050   32.1030 C.3    31  THR31       0.2028
     63  C         19.4610   -6.2260   32.7910 C.2    31  THR31       0.2642
     64  O         18.5030   -6.7620   32.2360 O.2    31  THR31      -0.2714
     65  CB        19.9680   -3.8090   32.9250 C.3    31  THR31       0.1808
     66  OG1       18.5940   -3.7610   33.3360 O.3    31  THR31      -0.2208
     67  CG2       20.3770   -2.5380   32.1630 C.3    31  THR31       0.0379
     68  N         19.8230   -6.5420   34.0320 N.am   32  ASP32      -0.1957
     69  CA        19.0240   -7.5590   34.7500 C.3    32  ASP32       0.1840
     70  C         17.7940   -6.9840   35.4510 C.2    32  ASP32       0.2621
     71  O         17.1210   -7.6830   36.2300 O.2    32  ASP32      -0.2715
     72  CB        19.9040   -8.3710   35.7200 C.3    32  ASP32       0.1450
     73  CG        20.4410   -7.5380   36.8580 C.2    32  ASP32       0.3671
     74  OD1       20.2290   -6.2950   36.8610 O.co2  32  ASP32      -0.2456
     75  OD2       21.0890   -8.1390   37.7610 O.co2  32  ASP32      -0.2456
     76  N         17.5030   -5.7050   35.1900 N.am   33  ILE33      -0.1977
     77  CA        16.3690   -5.0240   35.8190 C.3    33  ILE33       0.1596
     78  C         15.1190   -5.1780   34.9670 C.2    33  ILE33       0.2287
     79  O         15.1080   -4.7350   33.8100 O.2    33  ILE33      -0.2864
     80  CB        16.6300   -3.4910   35.9930 C.3    33  ILE33       0.0276
     81  CG1       17.9490   -3.2160   36.7350 C.3    33  ILE33       0.0022
     82  CG2       15.4360   -2.8270   36.6990 C.3    33  ILE33       0.0022
     83  CD1       18.5310   -1.8170   36.4500 C.3    33  ILE33       0.0001
     84  N         11.7530   -4.3460   33.2960 N.3    35  GLY35      -0.1210
     85  CA        11.2140   -3.0440   32.9200 C.3    35  GLY35       0.1956
     86  C         12.2930   -2.0850   32.4090 C.2    35  GLY35       0.2613
     87  O         12.1390   -0.8710   32.5200 O.2    35  GLY35      -0.2717
     88  N         13.3450   -2.6280   31.8130 N.am   36  THR36      -0.1938
     89  CA        14.3940   -1.8260   31.1690 C.3    36  THR36       0.2028
     90  C         13.8020   -1.2660   29.8730 C.2    36  THR36       0.2642
     91  O         13.8250   -0.0650   29.6470 O.2    36  THR36      -0.2714
     92  CB        15.6440   -2.6960   30.8800 C.3    36  THR36       0.1808
     93  OG1       16.2870   -3.0220   32.1200 O.3    36  THR36      -0.2208
     94  CG2       16.6930   -1.9560   29.9940 C.3    36  THR36       0.0379
     95  N         13.3000   -2.1500   29.0070 N.am   37  THR37      -0.1950
     96  CA        12.6390   -1.6960   27.7830 C.3    37  THR37       0.1897
     97  C         11.2240   -1.2160   28.0750 C.2    37  THR37       0.2313
     98  O         10.4730   -1.9220   28.7540 O.2    37  THR37      -0.2863
     99  CB        12.5300   -2.8340   26.7540 C.3    37  THR37       0.1794
    100  OG1       13.8200   -3.4140   26.5810 O.3    37  THR37      -0.2208
    101  CG2       12.0370   -2.2910   25.3730 C.3    37  THR37       0.0378
    102  N         11.0560   -5.2670   19.2560 N.3    56  ASP56      -0.1239
    103  CA        11.3060   -5.6480   20.6460 C.3    56  ASP56       0.1674
    104  C         10.3250   -4.7860   21.4590 C.2    56  ASP56       0.2266
    105  O         10.0340   -3.6450   21.0860 O.2    56  ASP56      -0.2867
    106  CB        12.7990   -5.3370   20.9510 C.3    56  ASP56       0.1410
    107  CG        13.1970   -5.5740   22.3980 C.2    56  ASP56       0.3668
    108  OD1       12.6200   -6.4970   23.0230 O.co2  56  ASP56      -0.2456
    109  OD2       14.1280   -4.8520   22.8880 O.co2  56  ASP56      -0.2456
    110  N          8.5400   -5.9510   28.4960 N.3    59  GLY59      -0.1225
    111  CA         8.0900   -7.2000   29.1340 C.3    59  GLY59       0.1811
    112  C          6.7050   -7.0480   29.7590 C.2    59  GLY59       0.2280
    113  O          6.4140   -6.0290   30.3710 O.2    59  GLY59      -0.2866
    114  N         14.6880  -19.3980   25.9900 N.3   121  ASN121     -0.1225
    115  CA        15.9740  -18.7290   26.0800 C.3   121  ASN121      0.1785
    116  C         16.7690  -19.1850   27.3070 C.2   121  ASN121      0.2597
    117  O         16.2330  -19.8600   28.2110 O.2   121  ASN121     -0.2718
    118  CB        15.7640  -17.2010   26.1030 C.3   121  ASN121      0.1169
    119  CG        17.0610  -16.4440   25.9590 C.2   121  ASN121      0.2627
    120  OD1       17.9620  -16.8950   25.2390 O.2   121  ASN121     -0.2716
    121  ND2       17.1690  -15.2910   26.6390 N.am  121  ASN121     -0.0877
    122  N         18.0550  -18.8270   27.3190 N.am  122  LYS122     -0.1980
    123  CA        18.9930  -19.0980   28.4080 C.3   122  LYS122      0.1596
    124  C         19.3730  -20.5770   28.4940 C.2   122  LYS122      0.2287
    125  O         19.6290  -21.1060   29.5880 O.2   122  LYS122     -0.2864
    126  CB        18.5110  -18.5510   29.7650 C.3   122  LYS122      0.0298
    127  CG        17.9700  -17.1130   29.6770 C.3   122  LYS122      0.0038
    128  CD        17.8480  -16.4010   31.0400 C.3   122  LYS122      0.0206
    129  CE        17.1910  -15.0110   30.8140 C.3   122  LYS122      0.1093
    130  NZ        16.9770  -14.2860   32.1160 N.3   122  LYS122     -0.1314
    131  N         22.1310  -21.6990   27.7850 N.3   124  ASP124     -0.1225
    132  CA        23.4770  -21.7100   28.3400 C.3   124  ASP124      0.1805
    133  C         23.4870  -22.0060   29.8380 C.2   124  ASP124      0.2597
    134  O         24.4610  -22.5700   30.3410 O.2   124  ASP124     -0.2718
    135  CB        24.2120  -20.3950   28.0570 C.3   124  ASP124      0.1424
    136  CG        23.5200  -19.1710   28.6930 C.2   124  ASP124      0.3668
    137  OD1       22.3210  -18.9510   28.4110 O.co2 124  ASP124     -0.2456
    138  OD2       24.1970  -18.4280   29.4510 O.co2 124  ASP124     -0.2456
    139  N         22.4080  -21.6390   30.5330 N.am  125  ILE125     -0.1980
    140  CA        22.2560  -21.9050   31.9580 C.3   125  ILE125      0.1595
    141  C         21.5620  -23.2490   32.1920 C.2   125  ILE125      0.2287
    142  O         21.9400  -23.9790   33.1030 O.2   125  ILE125     -0.2864
    143  CB        21.3730  -20.8270   32.6710 C.3   125  ILE125      0.0276
    144  CG1       21.8920  -19.4030   32.4050 C.3   125  ILE125      0.0022
    145  CG2       21.2580  -21.1170   34.1740 C.3   125  ILE125      0.0022
    146  CD1       21.1640  -18.3530   33.1880 C.3   125  ILE125      0.0001
    147  N         20.4280  -19.5370   23.2700 N.3   144  SER144     -0.1202
    148  CA        20.8870  -18.5340   24.2250 C.3   144  SER144      0.2020
    149  C         21.1040  -17.2410   23.4860 C.2   144  SER144      0.2619
    150  O         22.0120  -17.1260   22.6530 O.2   144  SER144     -0.2717
    151  CB        22.1950  -18.9650   24.8930 C.3   144  SER144      0.2103
    152  OG        22.7710  -17.8730   25.6080 O.3   144  SER144     -0.2182
    153  N         20.2770  -16.2430   23.7720 N.am  145  ALA145     -0.1965
    154  CA        20.5100  -14.9280   23.1930 C.3   145  ALA145      0.1728
    155  C         21.8550  -14.3430   23.6480 C.2   145  ALA145      0.2616
    156  O         22.5070  -13.6430   22.8560 O.2   145  ALA145     -0.2715
    157  CB        19.3580  -13.9720   23.5320 C.3   145  ALA145      0.0334
    158  N         22.2850  -14.6280   24.8930 N.am  146  ARG146     -0.1977
    159  CA        23.5430  -14.0690   25.4330 C.3   146  ARG146      0.1597
    160  C         24.7870  -14.6110   24.7100 C.2   146  ARG146      0.2287
    161  O         25.6520  -13.8270   24.2850 O.2   146  ARG146     -0.2864
    162  CB        23.6820  -14.2800   26.9370 C.3   146  ARG146      0.0334
    163  CG        24.9830  -13.6600   27.5470 C.3   146  ARG146      0.0492
    164  CD        25.1070  -13.8660   29.0840 C.3   146  ARG146      0.2205
    165  NE        24.5380  -12.7240   29.8150 N.pl3 146  ARG146     -0.0865
    166  CZ        24.3510  -12.6770   31.1380 C.cat 146  ARG146      0.5346
    167  NH1       24.7020  -13.7100   31.9070 N.pl3 146  ARG146      0.1354
    168  NH2       23.8120  -11.5940   31.6950 N.pl3 146  ARG146      0.1354
@<TRIPOS>BOND
     1   102   103    1
     2   103   106    1
     3   103   104    1
     4   106   107    1
     5   105   104    2
     6    43    42    2
     7   107   109   ar
     8   107   108   ar
     9    28    27    2
    10    37    36    2
    11   150   149    2
    12    42    41    1
    13   156   155    2
    14   154   157    1
    15   154   155    1
    16   154   153    1
    17   147   148    1
    18   149   153   am
    19   149   148    1
    20    36    35    1
    21    36    40   am
    22   155   158   am
    23    27    26    1
    24    27    34   am
    25    35    34    1
    26    35    38    1
    27    41    40    1
    28    41    44    1
    29   148   151    1
    30   161   160    2
    31    26    29    1
    32    26    25    1
    33    29    30    1
    34   160   159    1
    35    24    23    2
    36   158   159    1
    37   151   152    1
    38    38    39    1
    39    46    47    1
    40    30    31    1
    41    44    45    1
    42   120   119    2
    43    31    32    1
    44   101    99    1
    45   159   162    1
    46    25    23   am
    47    23    22    1
    48   119   118    1
    49   119   121   am
    50   114   115    1
    51   115   118    1
    52   115   116    1
    53    60    58    1
    54    32    33    1
    55    47    48    1
    56    47    50    1
    57   100    99    1
    58    99    96    1
    59    51    50    1
    60    51    53    1
    61   162   163    1
    62    48    49    2
    63    48    54   am
    64    22    21    1
    65   116   122   am
    66   116   117    2
    67   122   123    1
    68    50    52    1
    69   163   164    1
    70    58    55    1
    71    58    59    1
    72    54    55    1
    73    96    97    1
    74    96    95    1
    75   131   132    1
    76    19    18    2
    77    21    18   am
    78   135   132    1
    79   135   136    1
    80    97    98    2
    81    55    56    1
    82   132   133    1
    83   123   124    1
    84   123   126    1
    85   137   136   ar
    86    18    17    1
    87   124   125    2
    88   110   111    1
    89    20    17    1
    90   136   138   ar
    91    95    90   am
    92   164   165    1
    93   111   112    1
    94    17    16    1
    95    91    90    2
    96   127   126    1
    97   127   128    1
    98    56    57    2
    99    56    61   am
   100   112   113    2
   101   165   166    2
   102   133   134    2
   103   133   139   am
   104    90    89    1
   105    94    92    1
   106    16    10   am
   107   139   140    1
   108    61    62    1
   109   129   128    1
   110   129   130    1
   111    92    89    1
   112    92    93    1
   113    10    11    2
   114    10     9    1
   115   166   168    1
   116   166   167    1
   117    89    88    1
   118     1     2    1
   119     1     7    1
   120     8     9    1
   121     8     3   am
   122     2     3    1
   123     2     5    1
   124    88    86   am
   125     9    12    1
   126   140   141    1
   127   140   143    1
   128     3     4    2
   129    62    63    1
   130    62    65    1
   131    67    65    1
   132   141   142    2
   133    64    63    2
   134   144   143    1
   135   144   146    1
   136    86    87    2
   137    86    85    1
   138     7     6    1
   139   143   145    1
   140    63    68   am
   141     6     5    1
   142    85    84    1
   143    65    66    1
   144    14    13    2
   145    12    13    1
   146    79    78    2
   147    13    15   am
   148    68    69    1
   149    69    70    1
   150    69    72    1
   151    78    77    1
   152    76    70   am
   153    76    77    1
   154    70    71    2
   155    72    73    1
   156    77    80    1
   157    80    82    1
   158    80    81    1
   159    83    81    1
   160    73    74   ar
   161    73    75   ar
