@<TRIPOS>MOLECULE
tmp/2gjkA00.pdb
 190 179 0 0 0
SMALL
GASTEIGER

@<TRIPOS>ATOM
      1  N         27.4730   87.2660   28.8700 N.3   179  PRO179     -0.2102
      2  CA        28.1660   88.5640   28.9400 C.3   179  PRO179      0.1504
      3  C         27.2960   89.7920   28.6620 C.2   179  PRO179      0.2575
      4  O         26.3010   89.6950   27.9400 O.2   179  PRO179     -0.2718
      5  CB        29.2400   88.4390   27.8540 C.3   179  PRO179      0.0282
      6  CG        29.5120   86.9820   27.7610 C.3   179  PRO179      0.0208
      7  CD        28.2060   86.3050   28.0240 C.3   179  PRO179      0.0893
      8  N         27.6770   90.9330   29.2400 N.am  180  ASP180     -0.1974
      9  CA        26.9980   92.2030   28.9670 C.3   180  ASP180      0.1708
     10  C         27.2660   92.6100   27.5280 C.2   180  ASP180      0.2293
     11  O         28.4190   92.7620   27.1340 O.2   180  ASP180     -0.2864
     12  CB        27.4890   93.3120   29.9000 C.3   180  ASP180      0.1436
     13  CG        27.0100   93.1330   31.3210 C.2   180  ASP180      0.3671
     14  OD1       25.7780   93.0720   31.5320 O.co2 180  ASP180     -0.2456
     15  OD2       27.7950   93.0550   32.2920 O.co2 180  ASP180     -0.2456
     16  N         27.6270   94.4610   23.8660 N.3   182  ASN182     -0.1240
     17  CA        28.0540   95.7100   23.2250 C.3   182  ASN182      0.1653
     18  C         26.8640   96.5450   22.8100 C.2   182  ASN182      0.2266
     19  O         25.7250   96.1100   22.9260 O.2   182  ASN182     -0.2867
     20  CB        28.8260   95.4070   21.9340 C.3   182  ASN182      0.1155
     21  CG        30.2000   94.8990   22.1870 C.2   182  ASN182      0.2627
     22  OD1       30.5380   94.5160   23.3090 O.2   182  ASN182     -0.2716
     23  ND2       31.0180   94.8890   21.1460 N.am  182  ASN182     -0.0877
     24  N         26.0330   94.5190   19.5680 N.3   185  GLN185     -0.1245
     25  CA        25.2880   93.3060   19.8820 C.3   185  GLN185      0.1566
     26  C         23.8950   93.6300   20.4160 C.2   185  GLN185      0.2260
     27  O         22.9470   92.9080   20.1340 O.2   185  GLN185     -0.2867
     28  CB        26.0340   92.4760   20.9190 C.3   185  GLN185      0.0367
     29  CG        27.4310   92.0270   20.5030 C.3   185  GLN185      0.0905
     30  CD        28.1640   91.3030   21.6240 C.2   185  GLN185      0.2608
     31  OE1       29.1830   90.6470   21.3930 O.2   185  GLN185     -0.2717
     32  NE2       27.6380   91.4060   22.8360 N.am  185  GLN185     -0.0878
     33  N         35.9760   86.1740   13.9640 N.3   204  PRO204     -0.2102
     34  CA        36.1110   85.3290   15.1520 C.3   204  PRO204      0.1504
     35  C         36.1140   86.1010   16.4720 C.2   204  PRO204      0.2576
     36  O         36.7110   87.1790   16.5860 O.2   204  PRO204     -0.2718
     37  CB        37.4640   84.6510   14.9420 C.3   204  PRO204      0.0282
     38  CG        37.6690   84.6700   13.4980 C.3   204  PRO204      0.0208
     39  CD        37.0850   85.9550   13.0240 C.3   204  PRO204      0.0893
     40  N         35.4230   85.5360   17.4540 N.am  205  GLY205     -0.1943
     41  CA        35.4230   86.0440   18.8140 C.3   205  GLY205      0.2014
     42  C         34.5810   87.2840   19.0370 C.2   205  GLY205      0.2640
     43  O         34.6730   87.8860   20.1000 O.2   205  GLY205     -0.2714
     44  N         33.7450   87.6460   18.0630 N.am  206  THR206     -0.1936
     45  CA        32.9490   88.8750   18.1390 C.3   206  THR206      0.2028
     46  C         31.5630   88.6790   18.7540 C.2   206  THR206      0.2643
     47  O         30.7180   89.5710   18.6630 O.2   206  THR206     -0.2714
     48  CB        32.8050   89.5220   16.7390 C.3   206  THR206      0.1808
     49  OG1       32.3220   88.5560   15.7960 O.3   206  THR206     -0.2208
     50  CG2       34.1660   89.9550   16.1950 C.3   206  THR206      0.0379
     51  N         31.3260   87.5210   19.3660 N.am  207  GLY207     -0.1939
     52  CA        30.1100   87.2820   20.1270 C.3   207  GLY207      0.2014
     53  C         28.8900   86.8900   19.3150 C.2   207  GLY207      0.2639
     54  O         27.7630   87.1190   19.7460 O.2   207  GLY207     -0.2714
     55  N         29.1050   86.3140   18.1370 N.am  208  LYS208     -0.1963
     56  CA        28.0050   85.8300   17.2990 C.3   208  LYS208      0.1728
     57  C         27.1820   84.7500   18.0040 C.2   208  LYS208      0.2617
     58  O         25.9580   84.8140   18.0340 O.2   208  LYS208     -0.2715
     59  CB        28.5440   85.2750   15.9840 C.3   208  LYS208      0.0311
     60  CG        29.1580   86.3280   15.0850 C.3   208  LYS208      0.0038
     61  CD        29.4040   85.7940   13.6720 C.3   208  LYS208      0.0206
     62  CE        30.3750   84.6200   13.6590 C.3   208  LYS208      0.1093
     63  NZ        31.6270   84.9510   14.3870 N.3   208  LYS208     -0.1314
     64  N         27.8640   83.7680   18.5790 N.am  209  THR209     -0.1937
     65  CA        27.1960   82.6700   19.2680 C.3   209  THR209      0.2028
     66  C         26.5280   83.1310   20.5710 C.2   209  THR209      0.2642
     67  O         25.4370   82.6750   20.8960 O.2   209  THR209     -0.2714
     68  CB        28.1970   81.5310   19.5360 C.3   209  THR209      0.1808
     69  OG1       28.7460   81.0790   18.2960 O.3   209  THR209     -0.2208
     70  CG2       27.5100   80.2970   20.0920 C.3   209  THR209      0.0379
     71  N         27.1840   84.0270   21.3060 N.am  210  VAL210     -0.1977
     72  CA        26.6090   84.6110   22.5180 C.3   210  VAL210      0.1596
     73  C         25.3900   85.4650   22.1720 C.2   210  VAL210      0.2287
     74  O         24.3880   85.4380   22.8790 O.2   210  VAL210     -0.2864
     75  CB        27.6480   85.4770   23.2810 C.3   210  VAL210      0.0276
     76  CG1       26.9660   86.5030   24.1860 C.3   210  VAL210      0.0022
     77  CG2       28.5780   84.5940   24.1020 C.3   210  VAL210      0.0022
     78  N         28.2310   74.2020   21.2100 N.3   239  GLN239     -0.1245
     79  CA        28.6660   75.5250   21.6210 C.3   239  GLN239      0.1566
     80  C         27.4660   76.4070   21.9100 C.2   239  GLN239      0.2260
     81  O         27.4470   77.1460   22.8850 O.2   239  GLN239     -0.2867
     82  CB        29.5090   76.1600   20.5120 C.3   239  GLN239      0.0367
     83  CG        30.3080   77.3710   20.9500 C.3   239  GLN239      0.0905
     84  CD        31.4340   77.0180   21.9130 C.2   239  GLN239      0.2608
     85  OE1       31.6680   75.8370   22.2090 O.2   239  GLN239     -0.2717
     86  NE2       32.1280   78.0400   22.4100 N.am  239  GLN239     -0.0878
     87  N         25.5700   77.9210   25.6660 N.3   243  LYS243     -0.1245
     88  CA        25.2930   79.3310   25.9200 C.3   243  LYS243      0.1561
     89  C         23.8140   79.5520   26.2370 C.2   243  LYS243      0.2260
     90  O         23.4780   80.3860   27.0720 O.2   243  LYS243     -0.2867
     91  CB        25.7130   80.1980   24.7290 C.3   243  LYS243      0.0271
     92  CG        27.1920   80.1030   24.3480 C.3   243  LYS243      0.0035
     93  CD        28.0910   80.8170   25.3420 C.3   243  LYS243      0.0206
     94  CE        29.5720   80.6210   25.0100 C.3   243  LYS243      0.1093
     95  NZ        29.9030   81.0770   23.6200 N.3   243  LYS243     -0.1314
     96  N         23.2040   79.2320   13.6900 N.3   342  ASP342     -0.1225
     97  CA        24.5910   79.6750   13.8350 C.3   342  ASP342      0.1805
     98  C         25.4460   78.9070   12.8450 C.2   342  ASP342      0.2597
     99  O         25.1030   77.7910   12.4590 O.2   342  ASP342     -0.2718
    100  CB        25.0840   79.4410   15.2690 C.3   342  ASP342      0.1424
    101  CG        26.3390   80.2540   15.6250 C.2   342  ASP342      0.3668
    102  OD1       27.0600   80.7470   14.7280 O.co2 342  ASP342     -0.2456
    103  OD2       26.6950   80.4450   16.8060 O.co2 342  ASP342     -0.2456
    104  N         26.5470   79.5150   12.4160 N.am  343  GLU343     -0.1979
    105  CA        27.5120   78.8520   11.5420 C.3   343  GLU343      0.1602
    106  C         26.8770   78.4940   10.2010 C.2   343  GLU343      0.2287
    107  O         27.2990   77.5400    9.5390 O.2   343  GLU343     -0.2864
    108  CB        28.0640   77.5920   12.2230 C.3   343  GLU343      0.0415
    109  CG        29.5780   77.5140   12.2590 C.3   343  GLU343      0.1163
    110  CD        30.1780   78.4600   13.2690 C.2   343  GLU343      0.3649
    111  OE1       29.4020   79.0050   14.0850 O.co2 343  GLU343     -0.2457
    112  OE2       31.4140   78.6600   13.2400 O.co2 343  GLU343     -0.2457
    113  N         35.4070   81.8190    7.6490 N.3   371  GLN371     -0.1245
    114  CA        35.6220   80.6150    8.4460 C.3   371  GLN371      0.1566
    115  C         35.0790   79.4020    7.6770 C.2   371  GLN371      0.2260
    116  O         34.8060   79.5060    6.4880 O.2   371  GLN371     -0.2867
    117  CB        34.9860   80.7840    9.8300 C.3   371  GLN371      0.0367
    118  CG        35.5810   81.9560   10.6110 C.3   371  GLN371      0.0905
    119  CD        35.2390   81.9370   12.0920 C.2   371  GLN371      0.2608
    120  OE1       35.4780   80.9430   12.7770 O.2   371  GLN371     -0.2717
    121  NE2       34.6890   83.0410   12.5900 N.am  371  GLN371     -0.0878
    122  N         36.3320   89.6510   21.8430 N.3   408  TYR408     -0.1227
    123  CA        36.6240   89.5840   23.2760 C.3   408  TYR408      0.1736
    124  C         37.3410   88.2880   23.6800 C.2   408  TYR408      0.2595
    125  O         37.5090   88.0080   24.8660 O.2   408  TYR408     -0.2718
    126  CB        35.3150   89.6980   24.0600 C.3   408  TYR408      0.0548
    127  CG        34.6570   91.0550   23.9580 C.ar  408  TYR408     -0.0200
    128  CD1       33.8210   91.3710   22.8880 C.ar  408  TYR408     -0.0009
    129  CD2       34.8750   92.0260   24.9330 C.ar  408  TYR408     -0.0009
    130  CE1       33.2190   92.6260   22.7960 C.ar  408  TYR408      0.0417
    131  CE2       34.2810   93.2750   24.8510 C.ar  408  TYR408      0.0417
    132  CZ        33.4550   93.5680   23.7840 C.ar  408  TYR408      0.1957
    133  OH        32.8730   94.8080   23.7150 O.3   408  TYR408     -0.2866
    134  N         37.7650   87.5050   22.6960 N.am  409  ARG409     -0.1980
    135  CA        38.3760   86.2040   22.9380 C.3   409  ARG409      0.1597
    136  C         39.8870   86.3470   23.0770 C.2   409  ARG409      0.2287
    137  O         40.4660   85.9970   24.1050 O.2   409  ARG409     -0.2864
    138  CB        38.0280   85.2680   21.7730 C.3   409  ARG409      0.0334
    139  CG        38.8490   83.9920   21.6510 C.3   409  ARG409      0.0492
    140  CD        38.5580   83.2190   20.3750 C.3   409  ARG409      0.2205
    141  NE        37.2270   82.6100   20.4050 N.pl3 409  ARG409     -0.0865
    142  CZ        36.5730   82.1510   19.3420 C.cat 409  ARG409      0.5346
    143  NH1       37.1040   82.2220   18.1270 N.pl3 409  ARG409      0.1354
    144  NH2       35.3710   81.6110   19.4960 N.pl3 409  ARG409      0.1354
    145  N         44.2470   89.6920   29.1560 N.3   436  ARG436     -0.1245
    146  CA        44.7340   88.3760   28.7340 C.3   436  ARG436      0.1563
    147  C         46.1830   88.1260   29.1610 C.2   436  ARG436      0.2260
    148  O         47.0090   87.6720   28.3650 O.2   436  ARG436     -0.2867
    149  CB        44.5880   88.2050   27.2170 C.3   436  ARG436      0.0307
    150  CG        43.1560   88.3030   26.7020 C.3   436  ARG436      0.0489
    151  CD        42.2240   87.1860   27.1710 C.3   436  ARG436      0.2205
    152  NE        40.8220   87.5870   27.0580 N.pl3 436  ARG436     -0.0865
    153  CZ        39.8330   87.1740   27.8510 C.cat 436  ARG436      0.5346
    154  NH1       40.0460   86.3110   28.8390 N.pl3 436  ARG436      0.1354
    155  NH2       38.6020   87.6280   27.6440 N.pl3 436  ARG436      0.1354
    156  N         34.1790   77.0830   16.2730 N.3   537  GLY537     -0.1225
    157  CA        33.3490   77.9210   17.1190 C.3   537  GLY537      0.1811
    158  C         33.7300   77.8990   18.5840 C.2   537  GLY537      0.2280
    159  O         32.9890   78.4020   19.4250 O.2   537  GLY537     -0.2866
    160  N         37.0040   77.8430   21.8380 N.3   539  GLU539     -0.1245
    161  CA        38.1670   78.5920   22.2930 C.3   539  GLU539      0.1567
    162  C         38.9130   77.8740   23.4110 C.2   539  GLU539      0.2260
    163  O         38.3030   77.3360   24.3380 O.2   539  GLU539     -0.2867
    164  CB        37.7600   80.0020   22.7450 C.3   539  GLU539      0.0388
    165  CG        36.5580   80.0610   23.6810 C.3   539  GLU539      0.1160
    166  CD        36.2190   81.4780   24.1140 C.2   539  GLU539      0.3649
    167  OE1       36.2140   82.3900   23.2600 O.co2 539  GLU539     -0.2457
    168  OE2       35.9500   81.6840   25.3140 O.co2 539  GLU539     -0.2457
    169  N         41.5050   80.5800   17.6060 N.3   571  ARG571     -0.1245
    170  CA        40.9570   79.8180   18.7280 C.3   571  ARG571      0.1563
    171  C         41.5280   80.2680   20.0760 C.2   571  ARG571      0.2260
    172  O         40.8630   80.1430   21.1010 O.2   571  ARG571     -0.2867
    173  CB        41.2350   78.3250   18.5490 C.3   571  ARG571      0.0307
    174  CG        40.6820   77.7200   17.2740 C.3   571  ARG571      0.0489
    175  CD        39.2010   77.9650   17.0500 C.3   571  ARG571      0.2205
    176  NE        38.9350   79.1330   16.2080 N.pl3 571  ARG571     -0.0865
    177  CZ        37.7340   79.6760   16.0230 C.cat 571  ARG571      0.5346
    178  NH1       36.6600   79.1730   16.6220 N.pl3 571  ARG571      0.1354
    179  NH2       37.6090   80.7340   15.2310 N.pl3 571  ARG571      0.1354
    180  N         43.1010   82.3810   23.3150 N.3   573  ARG573     -0.1245
    181  CA        42.7650   83.5550   24.1140 C.3   573  ARG573      0.1563
    182  C         44.0220   84.2270   24.6530 C.2   573  ARG573      0.2260
    183  O         44.2280   85.4250   24.4500 O.2   573  ARG573     -0.2867
    184  CB        41.8590   83.1610   25.2790 C.3   573  ARG573      0.0307
    185  CG        40.5160   82.6150   24.8430 C.3   573  ARG573      0.0489
    186  CD        39.4720   82.5500   25.9520 C.3   573  ARG573      0.2205
    187  NE        39.3680   81.2120   26.5290 N.pl3 573  ARG573     -0.0865
    188  CZ        38.3840   80.7980   27.3260 C.cat 573  ARG573      0.5346
    189  NH1       37.3940   81.6200   27.6730 N.pl3 573  ARG573      0.1354
    190  NH2       38.3930   79.5480   27.7890 N.pl3 573  ARG573      0.1354
@<TRIPOS>BOND
     1   116   115    2
     2   113   114    1
     3   115   114    1
     4   114   117    1
     5   107   106    2
     6   117   118    1
     7   106   105    1
     8   118   119    1
     9   105   108    1
    10   105   104    1
    11   119   121   am
    12   119   120    2
    13   108   109    1
    14   109   110    1
    15   104    98   am
    16    99    98    2
    17    98    97    1
    18    39    38    1
    19    39    33    1
    20   112   110   ar
    21   110   111   ar
    22    38    37    1
    23    62    61    1
    24    62    63    1
    25    61    60    1
    26    96    97    1
    27    97   100    1
    28    33    34    1
    29   102   101   ar
    30    37    34    1
    31    60    59    1
    32    34    35    1
    33   179   177    1
    34   100   101    1
    35   101   103   ar
    36    49    48    1
    37    59    56    1
    38   177   176    2
    39   177   178    1
    40    50    48    1
    41   176   175    1
    42   156   157    1
    43    35    36    2
    44    35    40   am
    45    48    45    1
    46   175   174    1
    47   157   158    1
    48   174   173    1
    49    56    57    1
    50    56    55    1
    51    40    41    1
    52   169   170    1
    53    57    58    2
    54    57    64   am
    55    44    45    1
    56    44    42   am
    57   143   142    1
    58    55    53   am
    59    45    46    1
    60    69    68    1
    61   173   170    1
    62    64    65    1
    63   158   159    2
    64    47    46    2
    65   170   171    1
    66    46    51   am
    67    41    42    1
    68    42    43    2
    69    65    68    1
    70    65    66    1
    71    53    54    2
    72    53    52    1
    73   142   144    1
    74   142   141    2
    75    51    52    1
    76    68    70    1
    77    24    25    1
    78    25    26    1
    79    25    28    1
    80   171   172    2
    81    27    26    2
    82   140   141    1
    83   140   139    1
    84    29    28    1
    85    29    30    1
    86    82    83    1
    87    82    79    1
    88    66    67    2
    89    66    71   am
    90    83    84    1
    91    23    21   am
    92    78    79    1
    93    71    72    1
    94    31    30    2
    95    79    80    1
    96    30    32   am
    97   139   138    1
    98   138   135    1
    99   160   161    1
   100   122   123    1
   101    80    81    2
   102    84    85    2
   103    84    86   am
   104    20    21    1
   105    20    17    1
   106    73    72    1
   107    73    74    2
   108    21    22    2
   109   161   164    1
   110   161   162    1
   111    72    75    1
   112   134   135    1
   113   134   124   am
   114   164   165    1
   115   130   128   ar
   116   130   132   ar
   117    18    19    2
   118    18    17    1
   119   128   127   ar
   120   135   136    1
   121   136   137    2
   122    17    16    1
   123   167   166   ar
   124   123   124    1
   125   123   126    1
   126    75    77    1
   127    75    76    1
   128   180   181    1
   129   162   163    2
   130    95    94    1
   131   124   125    2
   132   165   166    1
   133   133   132    1
   134   132   131   ar
   135   127   126    1
   136   127   129   ar
   137   166   168   ar
   138   181   182    1
   139   181   184    1
   140    92    91    1
   141    92    93    1
   142   183   182    2
   143    91    88    1
   144   185   184    1
   145   185   186    1
   146   131   129   ar
   147    94    93    1
   148    87    88    1
   149    88    89    1
   150   186   187    1
   151    89    90    2
   152   187   188    2
   153   150   151    1
   154   150   149    1
   155   152   151    1
   156   152   153    2
   157    11    10    2
   158   149   146    1
   159   188   189    1
   160   188   190    1
   161    10     9    1
   162   155   153    1
   163     6     5    1
   164     6     7    1
   165   153   154    1
   166     5     2    1
   167     4     3    2
   168     7     1    1
   169   148   147    2
   170     3     2    1
   171     3     8   am
   172   146   145    1
   173   146   147    1
   174     1     2    1
   175     9     8    1
   176     9    12    1
   177    12    13    1
   178    13    14   ar
   179    13    15   ar
