@<TRIPOS>MOLECULE
tmp/2gjpA02.pdb
 89 84 0 0 0
SMALL
GASTEIGER

@<TRIPOS>ATOM
      1  N         11.7340   41.5800   59.2810 N.3     3  GLY3       -0.1225
      2  CA        12.3800   41.8370   60.5720 C.3     3  GLY3        0.1811
      3  C         13.7070   41.1040   60.6540 C.2     3  GLY3        0.2280
      4  O         13.7980   39.9410   60.3060 O.2     3  GLY3       -0.2866
      5  N         15.9150   45.0080   72.2420 N.3    96  TYR96      -0.1241
      6  CA        15.5680   43.9160   73.1490 C.3    96  TYR96       0.1605
      7  C         16.6300   43.7970   74.2310 C.2    96  TYR96       0.2264
      8  O         17.8230   43.7330   73.9340 O.2    96  TYR96      -0.2867
      9  CB        15.5060   42.5880   72.3900 C.3    96  TYR96       0.0534
     10  CG        14.5390   42.5760   71.2260 C.ar   96  TYR96      -0.0201
     11  CD1       13.4240   43.4010   71.2200 C.ar   96  TYR96      -0.0009
     12  CD2       14.7260   41.7010   70.1540 C.ar   96  TYR96      -0.0009
     13  CE1       12.5230   43.3730   70.1630 C.ar   96  TYR96       0.0417
     14  CE2       13.8500   41.6700   69.1050 C.ar   96  TYR96       0.0417
     15  CZ        12.7620   42.5240   69.1080 C.ar   96  TYR96       0.1957
     16  OH        11.8970   42.4490   68.0580 O.3    96  TYR96      -0.2866
     17  N          7.9800   41.8560   72.3900 N.3   258  PHE258     -0.1241
     18  CA         8.4350   40.6160   71.7760 C.3   258  PHE258      0.1605
     19  C          9.4510   39.9570   72.7170 C.2   258  PHE258      0.2264
     20  O         10.3020   40.6430   73.2840 O.2   258  PHE258     -0.2867
     21  CB         9.1230   40.8910   70.4330 C.3   258  PHE258      0.0534
     22  CG         9.8120   39.6920   69.8950 C.ar  258  PHE258     -0.0203
     23  CD1        9.1230   38.7900   69.1220 C.ar  258  PHE258     -0.0042
     24  CD2       11.1370   39.4500   70.2140 C.ar  258  PHE258     -0.0042
     25  CE1        9.7490   37.6310   68.6460 C.ar  258  PHE258     -0.0003
     26  CE2       11.7780   38.3160   69.7530 C.ar  258  PHE258     -0.0003
     27  CZ        11.0700   37.3910   68.9690 C.ar  258  PHE258     -0.0000
     28  N          8.7310   33.3710   71.7950 N.3   283  SER283     -0.1217
     29  CA         9.4630   32.5600   70.8240 C.3   283  SER283      0.1889
     30  C         10.6220   31.9220   71.5190 C.2   283  SER283      0.2288
     31  O         10.9670   32.3310   72.6150 O.2   283  SER283     -0.2866
     32  CB        10.0370   33.4690   69.7250 C.3   283  SER283      0.2089
     33  OG         9.0110   33.8530   68.8230 O.3   283  SER283     -0.2183
     34  N          7.3570   28.0730   62.8090 N.3   318  PRO318     -0.2102
     35  CA         8.0780   29.2020   62.2430 C.3   318  PRO318      0.1504
     36  C          7.8010   30.5430   62.9220 C.2   318  PRO318      0.2575
     37  O          8.6810   31.3830   63.0100 O.2   318  PRO318     -0.2718
     38  CB         7.5610   29.2620   60.8110 C.3   318  PRO318      0.0282
     39  CG         6.4000   28.4070   60.7540 C.3   318  PRO318      0.0208
     40  CD         6.5540   27.3650   61.7930 C.3   318  PRO318      0.0893
     41  N          6.5750   30.7190   63.3960 N.am  319  MET319     -0.1980
     42  CA         6.1930   31.9530   64.0500 C.3   319  MET319      0.1605
     43  C          6.8050   32.0960   65.4480 C.2   319  MET319      0.2287
     44  O          6.8300   33.1820   65.9930 O.2   319  MET319     -0.2864
     45  CB         4.6650   32.0690   64.0950 C.3   319  MET319      0.0413
     46  CG         4.0310   32.3110   62.7110 C.3   319  MET319      0.0598
     47  SD         2.2360   32.5900   62.7850 S.3   319  MET319     -0.1393
     48  CE         1.6420   30.9340   63.1100 C.3   319  MET319      0.0692
     49  N          9.9990   30.8460   66.2640 N.3   321  ALA321     -0.1245
     50  CA        11.4060   30.5330   66.1780 C.3   321  ALA321      0.1562
     51  C         12.2190   31.7720   65.8850 C.2   321  ALA321      0.2260
     52  O         11.9020   32.5220   64.9620 O.2   321  ALA321     -0.2867
     53  CB        11.6330   29.4660   65.0790 C.3   321  ALA321      0.0290
     54  N         11.0880   32.6680   54.3860 N.3   356  GLU356     -0.1245
     55  CA        10.0160   33.3970   55.0320 C.3   356  GLU356      0.1567
     56  C          9.7760   32.9790   56.4770 C.2   356  GLU356      0.2260
     57  O          9.1210   33.7070   57.2090 O.2   356  GLU356     -0.2867
     58  CB         8.7180   33.2710   54.2360 C.3   356  GLU356      0.0388
     59  CG         8.2730   31.8610   54.0310 C.3   356  GLU356      0.1160
     60  CD         6.9250   31.7590   53.2910 C.2   356  GLU356      0.3649
     61  OE1        6.4840   32.7870   52.6830 O.co2 356  GLU356     -0.2457
     62  OE2        6.3070   30.6420   53.3160 O.co2 356  GLU356     -0.2457
     63  N         10.6700   32.2040   60.3850 N.3   358  GLY358     -0.1210
     64  CA        11.5880   32.4670   61.4870 C.3   358  GLY358      0.1956
     65  C         11.9110   33.9310   61.5270 C.2   358  GLY358      0.2611
     66  O         11.6890   34.6540   60.5550 O.2   358  GLY358     -0.2717
     67  N         12.4230   34.3650   62.6650 N.am  359  TYR359     -0.1976
     68  CA        12.8280   35.7220   62.8870 C.3   359  TYR359      0.1639
     69  C         14.3170   35.5780   63.0590 C.2   359  TYR359      0.2290
     70  O         14.7660   35.0660   64.0780 O.2   359  TYR359     -0.2864
     71  CB        12.1760   36.1940   64.1740 C.3   359  TYR359      0.0560
     72  CG        12.4500   37.6310   64.5810 C.ar  359  TYR359     -0.0198
     73  CD1       13.0910   38.5400   63.7160 C.ar  359  TYR359     -0.0009
     74  CD2       12.0160   38.0950   65.8070 C.ar  359  TYR359     -0.0009
     75  CE1       13.3210   39.8540   64.1000 C.ar  359  TYR359      0.0417
     76  CE2       12.2220   39.4220   66.1910 C.ar  359  TYR359      0.0417
     77  CZ        12.8790   40.2780   65.3410 C.ar  359  TYR359      0.1957
     78  OH        13.0610   41.5720   65.7250 O.3   359  TYR359     -0.2866
     79  N         17.5950   40.0710   52.0590 N.3   389  ARG389     -0.1245
     80  CA        16.4920   40.0220   52.9590 C.3   389  ARG389      0.1563
     81  C         15.7020   41.3390   52.9770 C.2   389  ARG389      0.2260
     82  O         14.4620   41.3620   53.0700 O.2   389  ARG389     -0.2867
     83  CB        16.9720   39.7080   54.3750 C.3   389  ARG389      0.0307
     84  CG        15.8550   39.8710   55.3760 C.3   389  ARG389      0.0489
     85  CD        16.1780   39.1590   56.6580 C.3   389  ARG389      0.2205
     86  NE        14.9980   39.0620   57.5220 N.pl3 389  ARG389     -0.0865
     87  CZ        14.0610   38.1250   57.4970 C.cat 389  ARG389      0.5346
     88  NH1       14.0750   37.1190   56.6320 N.pl3 389  ARG389      0.1354
     89  NH2       13.0780   38.2200   58.3730 N.pl3 389  ARG389      0.1354
@<TRIPOS>BOND
     1    79    80    1
     2    61    60   ar
     3    80    81    1
     4    80    83    1
     5    81    82    2
     6    60    62   ar
     7    60    59    1
     8    59    58    1
     9    58    55    1
    10    83    84    1
    11    54    55    1
    12    55    56    1
    13    84    85    1
    14    56    57    2
    15    88    87    1
    16    85    86    1
    17    87    86    2
    18    87    89    1
    19     1     2    1
    20     4     3    2
    21    63    64    1
    22    66    65    2
    23     2     3    1
    24    39    38    1
    25    39    40    1
    26    38    35    1
    27    64    65    1
    28    65    67   am
    29    40    34    1
    30    35    34    1
    31    35    36    1
    32    67    68    1
    33    46    47    1
    34    46    45    1
    35    47    48    1
    36    68    69    1
    37    68    71    1
    38    36    37    2
    39    36    41   am
    40    69    70    2
    41    41    42    1
    42    73    75   ar
    43    73    72   ar
    44    42    45    1
    45    42    43    1
    46    75    77   ar
    47    71    72    1
    48    72    74   ar
    49    52    51    2
    50    53    50    1
    51    77    78    1
    52    77    76   ar
    53    43    44    2
    54    74    76   ar
    55    51    50    1
    56    50    49    1
    57    16    15    1
    58    25    27   ar
    59    25    23   ar
    60    33    32    1
    61    27    26   ar
    62    14    15   ar
    63    14    12   ar
    64    15    13   ar
    65    23    22   ar
    66    32    29    1
    67    26    24   ar
    68    22    24   ar
    69    22    21    1
    70    12    10   ar
    71    13    11   ar
    72    21    18    1
    73    29    30    1
    74    29    28    1
    75    11    10   ar
    76    10     9    1
    77    30    31    2
    78    18    17    1
    79    18    19    1
    80     5     6    1
    81     9     6    1
    82    19    20    2
    83     6     7    1
    84     8     7    2
