@<TRIPOS>MOLECULE
tmp/2gjpA01.pdb
 72 69 0 0 0
SMALL
GASTEIGER

@<TRIPOS>ATOM
      1  N         28.2100   22.0150   58.7550 N.3   297  SER297     -0.1202
      2  CA        29.4380   22.7580   58.4270 C.3   297  SER297      0.2020
      3  C         30.6640   21.9010   58.7240 C.2   297  SER297      0.2618
      4  O         31.7530   22.1510   58.1970 O.2   297  SER297     -0.2717
      5  CB        29.5350   24.0410   59.2520 C.3   297  SER297      0.2103
      6  OG        29.8540   23.7760   60.6260 O.3   297  SER297     -0.2182
      7  N         30.4740   20.8770   59.5560 N.am  298  ASN298     -0.1974
      8  CA        31.5680   19.9940   59.9460 C.3   298  ASN298      0.1688
      9  C         31.5980   18.6860   59.1750 C.2   298  ASN298      0.2292
     10  O         32.4370   17.8220   59.3990 O.2   298  ASN298     -0.2864
     11  CB        31.5040   19.7190   61.4370 C.3   298  ASN298      0.1181
     12  CG        32.1550   20.7920   62.2260 C.2   298  ASN298      0.2629
     13  OD1       33.3700   20.8540   62.2700 O.2   298  ASN298     -0.2716
     14  ND2       31.3690   21.6550   62.8510 N.am  298  ASN298     -0.0877
     15  N         31.9950   18.2290   55.8720 N.3   300  GLY300     -0.1210
     16  CA        32.8440   18.1460   54.6940 C.3   300  GLY300      0.1956
     17  C         32.0770   17.8770   53.4020 C.2   300  GLY300      0.2612
     18  O         32.6280   17.3240   52.4590 O.2   300  GLY300     -0.2717
     19  N         30.8040   18.2640   53.3700 N.am  301  GLY301     -0.1956
     20  CA        30.0240   18.1400   52.1590 C.3   301  GLY301      0.1869
     21  C         29.0590   16.9940   52.2510 C.2   301  GLY301      0.2309
     22  O         28.1680   16.8650   51.4210 O.2   301  GLY301     -0.2863
     23  N         31.3100   26.4150   60.8770 N.3   341  GLN341     -0.1245
     24  CA        32.5560   26.6130   60.1400 C.3   341  GLN341      0.1566
     25  C         32.3820   27.7360   59.1870 C.2   341  GLN341      0.2260
     26  O         31.3220   27.8430   58.5810 O.2   341  GLN341     -0.2867
     27  CB        32.8650   25.3760   59.3240 C.3   341  GLN341      0.0367
     28  CG        33.1900   24.1550   60.1430 C.3   341  GLN341      0.0905
     29  CD        34.5900   24.1780   60.5680 C.2   341  GLN341      0.2608
     30  OE1       34.8860   24.1090   61.7640 O.2   341  GLN341     -0.2717
     31  NE2       35.5060   24.3300   59.5960 N.am  341  GLN341     -0.0878
     32  N         33.3450   28.4630   56.0880 N.3   343  TRP343     -0.1241
     33  CA        32.9450   28.2970   54.6900 C.3   343  TRP343      0.1605
     34  C         31.4570   28.1360   54.6170 C.2   343  TRP343      0.2264
     35  O         30.8480   28.4610   53.6220 O.2   343  TRP343     -0.2867
     36  CB        33.5700   27.0510   54.0060 C.3   343  TRP343      0.0550
     37  CG        33.0900   25.7260   54.5420 C.ar  343  TRP343      0.0003
     38  CD1       33.5310   25.0960   55.6850 C.ar  343  TRP343      0.0946
     39  CD2       32.0940   24.8480   53.9640 C.ar  343  TRP343      0.0152
     40  NE1       32.8600   23.8870   55.8510 N.ar  343  TRP343     -0.2442
     41  CE2       31.9820   23.7200   54.8090 C.ar  343  TRP343      0.0810
     42  CE3       31.2960   24.9080   52.8130 C.ar  343  TRP343      0.0012
     43  CZ2       31.1190   22.6560   54.5260 C.ar  343  TRP343      0.0191
     44  CZ3       30.4170   23.8680   52.5510 C.ar  343  TRP343      0.0001
     45  CH2       30.3480   22.7480   53.3940 C.ar  343  TRP343      0.0015
     46  N         26.6420   22.4110   49.6280 N.3   428  ASP428     -0.1225
     47  CA        27.6480   22.0890   50.6430 C.3   428  ASP428      0.1805
     48  C         28.6970   21.2010   49.9980 C.2   428  ASP428      0.2598
     49  O         29.6990   20.8310   50.6370 O.2   428  ASP428     -0.2718
     50  CB        26.9930   21.4070   51.8760 C.3   428  ASP428      0.1424
     51  CG        26.5510   19.9530   51.6120 C.2   428  ASP428      0.3668
     52  OD1       26.2330   19.6270   50.4690 O.co2 428  ASP428     -0.2456
     53  OD2       26.5180   19.1290   52.5410 O.co2 428  ASP428     -0.2456
     54  N         28.4810   20.8980   48.7190 N.am  429  GLY429     -0.1943
     55  CA        29.3560   20.0680   47.9170 C.3   429  GLY429      0.1998
     56  C         29.6830   20.7220   46.5870 C.2   429  GLY429      0.2480
     57  O         29.6820   21.9140   46.4950 O.2   429  GLY429     -0.2729
     58  N         29.9880   19.9220   45.5510 N.am  430  PRO430     -0.2726
     59  CA        30.1910   20.4640   44.2230 C.3   430  PRO430      0.1402
     60  C         29.0450   21.3790   43.7840 C.2   430  PRO430      0.2269
     61  O         27.8680   21.2050   44.2000 O.2   430  PRO430     -0.2865
     62  CB        30.2470   19.2110   43.3400 C.3   430  PRO430      0.0296
     63  CG        30.6920   18.1440   44.2460 C.3   430  PRO430      0.0237
     64  CD        30.1810   18.4620   45.5980 C.3   430  PRO430      0.0939
     65  N         30.5220   25.2900   44.0140 N.3   472  GLY472     -0.1210
     66  CA        30.6760   24.3420   45.1130 C.3   472  GLY472      0.1956
     67  C         30.8780   25.0240   46.4510 C.2   472  GLY472      0.2612
     68  O         31.5540   26.0470   46.5350 O.2   472  GLY472     -0.2717
     69  N         30.3280   24.4410   47.5150 N.am  473  GLY473     -0.1956
     70  CA        30.4550   25.0190   48.8690 C.3   473  GLY473      0.1869
     71  C         30.1480   26.4990   48.9730 C.2   473  GLY473      0.2309
     72  O         30.9040   27.2490   49.5640 O.2   473  GLY473     -0.2863
@<TRIPOS>BOND
     1    62    59    1
     2    62    63    1
     3    60    61    2
     4    60    59    1
     5    65    66    1
     6    59    58    1
     7    63    64    1
     8    66    67    1
     9    58    64    1
    10    58    56   am
    11    67    68    2
    12    67    69   am
    13    57    56    2
    14    56    55    1
    15    69    70    1
    16    55    54    1
    17    54    48   am
    18    70    71    1
    19    71    72    2
    20    46    47    1
    21    48    49    2
    22    48    47    1
    23    52    51   ar
    24    47    50    1
    25    22    21    2
    26    51    50    1
    27    51    53   ar
    28    20    21    1
    29    20    19    1
    30    18    17    2
    31    44    42   ar
    32    44    45   ar
    33    42    39   ar
    34    19    17   am
    35    45    43   ar
    36    17    16    1
    37    35    34    2
    38    39    37   ar
    39    39    41   ar
    40    36    37    1
    41    36    33    1
    42    43    41   ar
    43    37    38   ar
    44    34    33    1
    45    33    32    1
    46    16    15    1
    47    41    40   ar
    48    38    40   ar
    49     4     3    2
    50     2     3    1
    51     2     1    1
    52     2     5    1
    53    26    25    2
    54     3     7   am
    55     9    10    2
    56     9     8    1
    57    25    24    1
    58     5     6    1
    59    27    24    1
    60    27    28    1
    61     7     8    1
    62    31    29   am
    63     8    11    1
    64    24    23    1
    65    28    29    1
    66    29    30    2
    67    11    12    1
    68    12    13    2
    69    12    14   am
