@<TRIPOS>MOLECULE
tmp/2gjsA00.pdb
 102 98 0 0 0
SMALL
GASTEIGER

@<TRIPOS>ATOM
      1  N         37.8140   35.7050   19.5720 N.3    10  PRO10      -0.2102
      2  CA        37.6440   35.6760   21.0130 C.3    10  PRO10       0.1504
      3  C         37.4110   34.2600   21.5280 C.2    10  PRO10       0.2576
      4  O         36.7630   33.4260   20.8650 O.2    10  PRO10      -0.2718
      5  CB        36.3930   36.5560   21.2460 C.3    10  PRO10       0.0282
      6  CG        36.2620   37.3650   20.0160 C.3    10  PRO10       0.0208
      7  CD        36.8530   36.6190   18.9030 C.3    10  PRO10       0.0893
      8  N         37.9890   33.9650   22.6740 N.am   11  GLY11      -0.1943
      9  CA        37.6970   32.7380   23.4090 C.3    11  GLY11       0.2014
     10  C         38.5140   31.5120   23.0360 C.2    11  GLY11       0.2639
     11  O         38.2540   30.4330   23.5680 O.2    11  GLY11      -0.2714
     12  N         39.4870   31.6610   22.1360 N.am   12  VAL12      -0.1963
     13  CA        40.2530   30.5320   21.5800 C.3    12  VAL12       0.1727
     14  C         41.4610   30.1130   22.4700 C.2    12  VAL12       0.2617
     15  O         41.9700   28.9970   22.3530 O.2    12  VAL12      -0.2715
     16  CB        40.7470   30.7790   20.1200 C.3    12  VAL12       0.0290
     17  CG1       39.5830   30.9930   19.1600 C.3    12  VAL12       0.0023
     18  CG2       41.8040   31.9250   20.0870 C.3    12  VAL12       0.0023
     19  N         41.8920   31.0040   23.3730 N.am   13  GLY13      -0.1940
     20  CA        42.9720   30.7210   24.3320 C.3    13  GLY13       0.2014
     21  C         44.2640   31.5000   24.0760 C.2    13  GLY13       0.2639
     22  O         45.3060   31.1240   24.5480 O.2    13  GLY13      -0.2714
     23  N         44.1780   32.6320   23.3740 N.am   14  LYS14      -0.1963
     24  CA        45.3240   33.5070   23.1480 C.3    14  LYS14       0.1728
     25  C         45.9570   33.9470   24.4680 C.2    14  LYS14       0.2617
     26  O         47.1920   33.8040   24.6710 O.2    14  LYS14      -0.2715
     27  CB        44.8790   34.7320   22.2950 C.3    14  LYS14       0.0311
     28  CG        44.3700   34.4200   20.8980 C.3    14  LYS14       0.0038
     29  CD        44.0160   35.7100   20.0680 C.3    14  LYS14       0.0206
     30  CE        42.9570   36.5910   20.7270 C.3    14  LYS14       0.1093
     31  NZ        41.6390   35.9050   21.0380 N.3    14  LYS14      -0.1314
     32  N         45.1200   34.4050   25.3950 N.am   15  SER15      -0.1936
     33  CA        45.5950   34.9120   26.6750 C.3    15  SER15       0.2055
     34  C         46.1500   33.8040   27.5270 C.2    15  SER15       0.2642
     35  O         47.1950   33.9660   28.1510 O.2    15  SER15      -0.2714
     36  CB        44.5130   35.7010   27.4010 C.3    15  SER15       0.2130
     37  OG        44.1270   36.8820   26.6470 O.3    15  SER15      -0.2179
     38  N         45.5050   32.6330   27.4800 N.am   16  ALA16      -0.1977
     39  CA        45.9910   31.4420   28.1730 C.3    16  ALA16       0.1597
     40  C         47.3890   31.0410   27.7720 C.2    16  ALA16       0.2287
     41  O         48.2220   30.7660   28.6460 O.2    16  ALA16      -0.2864
     42  CB        45.0230   30.2460   27.8990 C.3    16  ALA16       0.0319
     43  N         50.0080   33.7490   28.7690 N.3    19  ARG19      -0.1245
     44  CA        50.3050   33.8160   30.2020 C.3    19  ARG19       0.1563
     45  C         51.1710   32.6530   30.6380 C.2    19  ARG19       0.2260
     46  O         52.0720   32.8220   31.4600 O.2    19  ARG19      -0.2867
     47  CB        49.0260   33.9080   31.0390 C.3    19  ARG19       0.0307
     48  CG        48.2840   35.2350   30.8110 C.3    19  ARG19       0.0489
     49  CD        47.1080   35.4250   31.7480 C.3    19  ARG19       0.2205
     50  NE        46.3830   34.1660   31.9230 N.pl3  19  ARG19      -0.0865
     51  CZ        45.0800   33.9840   31.7160 C.cat  19  ARG19       0.5346
     52  NH1       44.5700   32.7630   31.8970 N.pl3  19  ARG19       0.1354
     53  NH2       44.2860   34.9940   31.3460 N.pl3  19  ARG19       0.1354
     54  N         44.2050   25.2150   19.3920 N.3    95  ASN95      -0.1225
     55  CA        44.2380   25.0880   20.8410 C.3    95  ASN95       0.1785
     56  C         43.0210   24.2890   21.4010 C.2    95  ASN95       0.2597
     57  O         42.0580   24.0560   20.6800 O.2    95  ASN95      -0.2718
     58  CB        44.3410   26.4840   21.4410 C.3    95  ASN95       0.1169
     59  CG        44.6160   26.4740   22.9470 C.2    95  ASN95       0.2627
     60  OD1       45.5010   25.7390   23.4490 O.2    95  ASN95      -0.2716
     61  ND2       43.8620   27.2650   23.6730 N.am   95  ASN95      -0.0877
     62  N         43.1090   23.9160   22.6720 N.am   96  LYS96      -0.1980
     63  CA        42.0760   23.1920   23.4580 C.3    96  LYS96       0.1596
     64  C         42.0170   21.7460   23.0720 C.2    96  LYS96       0.2287
     65  O         40.9540   21.1020   23.1020 O.2    96  LYS96      -0.2864
     66  CB        40.6910   23.8370   23.4020 C.3    96  LYS96       0.0298
     67  CG        40.6680   25.3510   23.7000 C.3    96  LYS96       0.0038
     68  CD        39.2540   25.8440   24.0100 C.3    96  LYS96       0.0206
     69  CE        39.1910   27.3730   24.1860 C.3    96  LYS96       0.1093
     70  NZ        37.8460   27.8370   24.6130 N.3    96  LYS96      -0.1314
     71  N         42.7740   19.2850   24.6970 N.3    98  ASP98      -0.1225
     72  CA        42.3480   18.4420   25.8290 C.3    98  ASP98       0.1805
     73  C         40.8320   18.1510   25.8330 C.2    98  ASP98       0.2597
     74  O         40.3860   17.1680   26.4540 O.2    98  ASP98      -0.2718
     75  CB        42.7460   19.0640   27.1750 C.3    98  ASP98       0.1424
     76  CG        42.1830   20.4530   27.3640 C.2    98  ASP98       0.3668
     77  OD1       42.5480   21.3440   26.5810 O.co2  98  ASP98      -0.2456
     78  OD2       41.4050   20.6390   28.3120 O.co2  98  ASP98      -0.2456
     79  N         40.0590   19.0180   25.1820 N.am   99  LEU99      -0.1979
     80  CA        38.5950   18.9330   25.1430 C.3    99  LEU99       0.1596
     81  C         38.1300   17.9840   24.0190 C.2    99  LEU99       0.2287
     82  O         37.4520   18.3660   23.0540 O.2    99  LEU99      -0.2864
     83  CB        37.9800   20.3160   25.0040 C.3    99  LEU99       0.0297
     84  CG        38.2810   21.3150   26.1470 C.3    99  LEU99       0.0022
     85  CD1       37.6190   22.6780   25.8560 C.3    99  LEU99       0.0001
     86  CD2       37.8690   20.7670   27.5200 C.3    99  LEU99       0.0001
     87  N         47.3070   22.5360   24.1190 N.3   125  SER125     -0.1202
     88  CA        46.3630   22.6160   25.2040 C.3   125  SER125      0.2020
     89  C         46.9630   23.5340   26.2720 C.2   125  SER125      0.2619
     90  O         47.9000   23.1310   26.9860 O.2   125  SER125     -0.2717
     91  CB        46.0970   21.2870   25.8700 C.3   125  SER125      0.2103
     92  OG        45.3100   21.5430   27.0340 O.3   125  SER125     -0.2182
     93  N         46.4250   24.7240   26.3790 N.am  126  ALA126     -0.1965
     94  CA        46.7950   25.6240   27.4920 C.3   126  ALA126      0.1728
     95  C         46.4190   24.9720   28.8320 C.2   126  ALA126      0.2616
     96  O         47.0670   25.2090   29.8350 O.2   126  ALA126     -0.2715
     97  CB        46.1410   27.0310   27.3280 C.3   126  ALA126      0.0334
     98  N         45.3370   24.2080   28.8780 N.am  127  ALA127     -0.1977
     99  CA        44.9050   23.5900   30.1160 C.3   127  ALA127      0.1597
    100  C         45.9560   22.6380   30.6660 C.2   127  ALA127      0.2287
    101  O         46.1420   22.5650   31.8750 O.2   127  ALA127     -0.2864
    102  CB        43.6060   22.8480   29.9190 C.3   127  ALA127      0.0319
@<TRIPOS>BOND
     1     7     1    1
     2     7     6    1
     3    17    16    1
     4    54    55    1
     5     1     2    1
     6     6     5    1
     7    29    30    1
     8    29    28    1
     9    18    16    1
    10    16    13    1
    11    57    56    2
    12    30    31    1
    13    55    56    1
    14    55    58    1
    15     4     3    2
    16    28    27    1
    17     2     5    1
    18     2     3    1
    19    56    62   am
    20    58    59    1
    21     3     8   am
    22    13    12    1
    23    13    14    1
    24    12    10   am
    25    27    24    1
    26    15    14    2
    27    14    19   am
    28    62    63    1
    29     8     9    1
    30    59    60    2
    31    59    61   am
    32    10     9    1
    33    10    11    2
    34    82    81    2
    35    64    65    2
    36    64    63    1
    37    24    23    1
    38    24    25    1
    39    19    20    1
    40    23    21   am
    41    66    63    1
    42    66    67    1
    43    67    68    1
    44    68    69    1
    45    81    80    1
    46    21    20    1
    47    21    22    2
    48    87    88    1
    49    69    70    1
    50    25    26    2
    51    25    32   am
    52    71    72    1
    53    83    80    1
    54    83    84    1
    55    80    79    1
    56    79    73   am
    57    88    91    1
    58    88    89    1
    59    32    33    1
    60    72    73    1
    61    72    75    1
    62    73    74    2
    63    85    84    1
    64    91    92    1
    65    84    86    1
    66    89    93   am
    67    89    90    2
    68    93    94    1
    69    77    76   ar
    70    37    36    1
    71    33    36    1
    72    33    34    1
    73    75    76    1
    74    97    94    1
    75    76    78   ar
    76    38    34   am
    77    38    39    1
    78    94    95    1
    79    34    35    2
    80    40    39    1
    81    40    41    2
    82    42    39    1
    83    43    44    1
    84    95    98   am
    85    95    96    2
    86    98    99    1
    87   102    99    1
    88    99   100    1
    89    44    45    1
    90    44    47    1
    91    45    46    2
    92   100   101    2
    93    48    47    1
    94    48    49    1
    95    53    51    1
    96    51    52    1
    97    51    50    2
    98    49    50    1
