@<TRIPOS>MOLECULE
tmp/2gjxH01.pdb
 91 86 0 0 0
SMALL
GASTEIGER

@<TRIPOS>ATOM
      1  N        207.6290  -77.0800   80.5750 N.3     8  PHE8       -0.1241
      2  CA       206.4820  -77.2550   79.6930 C.3     8  PHE8        0.1605
      3  C        205.7750  -78.5920   79.8820 C.2     8  PHE8        0.2264
      4  O        206.3820  -79.6540   79.7510 O.2     8  PHE8       -0.2867
      5  CB       206.8990  -77.0770   78.2310 C.3     8  PHE8        0.0534
      6  CG       205.7430  -76.9900   77.2790 C.ar    8  PHE8       -0.0203
      7  CD1      205.1260  -75.7770   77.0310 C.ar    8  PHE8       -0.0042
      8  CD2      205.2730  -78.1210   76.6280 C.ar    8  PHE8       -0.0042
      9  CE1      204.0580  -75.6920   76.1590 C.ar    8  PHE8       -0.0003
     10  CE2      204.2090  -78.0390   75.7510 C.ar    8  PHE8       -0.0003
     11  CZ       203.6010  -76.8220   75.5170 C.ar    8  PHE8       -0.0000
     12  N        202.3500  -80.4960   78.4650 N.3    10  THR10      -0.1203
     13  CA       201.2350  -80.4760   77.5330 C.3    10  THR10       0.1994
     14  C        200.3740  -81.7290   77.6320 C.2    10  THR10       0.2619
     15  O        200.8680  -82.8190   77.9210 O.2    10  THR10      -0.2717
     16  CB       201.7130  -80.2770   76.0710 C.3    10  THR10       0.1784
     17  OG1      200.5810  -80.0820   75.2130 O.3    10  THR10      -0.2211
     18  CG2      202.5260  -81.4810   75.5910 C.3    10  THR10       0.0376
     19  N        199.0790  -81.5560   77.4030 N.am   11  SER11      -0.1937
     20  CA       198.1370  -82.6590   77.4270 C.3    11  SER11       0.2055
     21  C        197.3690  -82.7060   76.1120 C.2    11  SER11       0.2643
     22  O        197.4440  -81.7770   75.3100 O.2    11  SER11      -0.2714
     23  CB       197.1670  -82.5020   78.5960 C.3    11  SER11       0.2130
     24  OG       196.1790  -83.5150   78.5790 O.3    11  SER11      -0.2179
     25  N        196.6390  -83.7930   75.8890 N.am   12  ASP12      -0.1971
     26  CA       195.8460  -83.9350   74.6740 C.3    12  ASP12       0.1709
     27  C        194.4240  -83.4110   74.8420 C.2    12  ASP12       0.2293
     28  O        193.6410  -83.4180   73.8910 O.2    12  ASP12      -0.2864
     29  CB       195.8360  -85.3870   74.1860 C.3    12  ASP12       0.1436
     30  CG       197.1340  -85.7820   73.5000 C.2    12  ASP12       0.3671
     31  OD1      197.2280  -86.9300   73.0170 O.co2  12  ASP12      -0.2456
     32  OD2      198.0560  -84.9400   73.4330 O.co2  12  ASP12      -0.2456
     33  N        191.4750  -81.0590   74.7610 N.3    14  ARG14      -0.1245
     34  CA       191.1970  -79.9420   73.8770 C.3    14  ARG14       0.1563
     35  C        190.1310  -79.0090   74.4360 C.2    14  ARG14       0.2260
     36  O        189.2630  -79.4240   75.2030 O.2    14  ARG14      -0.2867
     37  CB       190.7660  -80.4670   72.5120 C.3    14  ARG14       0.0307
     38  CG       191.9010  -81.0340   71.6800 C.3    14  ARG14       0.0489
     39  CD       191.4290  -82.2080   70.8470 C.3    14  ARG14       0.2205
     40  NE       190.1060  -81.9870   70.2750 N.pl3  14  ARG14      -0.0865
     41  CZ       189.3770  -82.9370   69.6950 C.cat  14  ARG14       0.5346
     42  NH1      189.8420  -84.1770   69.6120 N.pl3  14  ARG14       0.1354
     43  NH2      188.1790  -82.6480   69.2050 N.pl3  14  ARG14       0.1354
     44  N        200.1310  -71.4370   70.7780 N.3   109  LEU109     -0.1245
     45  CA       199.5330  -72.6920   71.2420 C.3   109  LEU109      0.1561
     46  C        198.1280  -72.9160   70.6900 C.2   109  LEU109      0.2260
     47  O        197.5330  -73.9760   70.8960 O.2   109  LEU109     -0.2867
     48  CB       199.5270  -72.7660   72.7710 C.3   109  LEU109      0.0270
     49  CG       200.8970  -72.8930   73.4390 C.3   109  LEU109      0.0019
     50  CD1      200.7550  -72.9610   74.9560 C.3   109  LEU109      0.0001
     51  CD2      201.6380  -74.1130   72.9130 C.3   109  LEU109      0.0001
     52  N        195.6280  -73.7470   67.7740 N.3   111  TRP111     -0.1241
     53  CA       195.7410  -74.5460   66.5610 C.3   111  TRP111      0.1605
     54  C        194.3790  -74.8900   65.9810 C.2   111  TRP111      0.2264
     55  O        193.3690  -74.8610   66.6820 O.2   111  TRP111     -0.2867
     56  CB       196.5240  -75.8310   66.8430 C.3   111  TRP111      0.0550
     57  CG       195.8690  -76.7250   67.8610 C.ar  111  TRP111      0.0003
     58  CD1      195.8960  -76.5800   69.2190 C.ar  111  TRP111      0.0946
     59  CD2      195.1060  -77.9120   67.6010 C.ar  111  TRP111      0.0152
     60  NE1      195.1890  -77.5940   69.8180 N.ar  111  TRP111     -0.2442
     61  CE2      194.6970  -78.4280   68.8480 C.ar  111  TRP111      0.0810
     62  CE3      194.7300  -78.5890   66.4340 C.ar  111  TRP111      0.0012
     63  CZ2      193.9280  -79.5890   68.9640 C.ar  111  TRP111      0.0191
     64  CZ3      193.9640  -79.7430   66.5510 C.ar  111  TRP111      0.0001
     65  CH2      193.5720  -80.2280   67.8070 C.ar  111  TRP111      0.0015
     66  N        192.0900  -77.7710   63.7550 N.3   113  SER113     -0.1202
     67  CA       192.0180  -79.1670   63.3530 C.3   113  SER113      0.2020
     68  C        191.8060  -79.2710   61.8460 C.2   113  SER113      0.2618
     69  O        191.7550  -78.2580   61.1480 O.2   113  SER113     -0.2717
     70  CB       190.8850  -79.8770   64.0930 C.3   113  SER113      0.2103
     71  OG       189.6280  -79.3180   63.7540 O.3   113  SER113     -0.2182
     72  N        191.6870  -80.5000   61.3490 N.am  114  ALA114     -0.1979
     73  CA       191.4440  -80.7330   59.9280 C.3   114  ALA114      0.1597
     74  C        190.1100  -80.1200   59.5030 C.2   114  ALA114      0.2287
     75  O        189.9400  -79.7200   58.3510 O.2   114  ALA114     -0.2864
     76  CB       191.4720  -82.2190   59.6220 C.3   114  ALA114      0.0319
     77  N        195.2220  -76.7360   74.0300 N.3   121  ASN121     -0.1240
     78  CA       195.3760  -77.8980   74.8940 C.3   121  ASN121      0.1653
     79  C        195.6530  -77.5320   76.3460 C.2   121  ASN121      0.2266
     80  O        196.1190  -76.4280   76.6370 O.2   121  ASN121     -0.2867
     81  CB       196.4760  -78.8160   74.3710 C.3   121  ASN121      0.1155
     82  CG       196.0900  -79.5140   73.0860 C.2   121  ASN121      0.2627
     83  OD1      195.3030  -78.9930   72.2910 O.2   121  ASN121     -0.2716
     84  ND2      196.6560  -80.7040   72.8700 N.am  121  ASN121     -0.0877
     85  N        197.5490  -76.9170   79.2540 N.3   123  THR123     -0.1218
     86  CA       198.9670  -76.6250   79.3710 C.3   123  THR123      0.1862
     87  C        199.3610  -76.0910   80.7420 C.2   123  THR123      0.2287
     88  O        198.5790  -75.4080   81.4110 O.2   123  THR123     -0.2866
     89  CB       199.4320  -75.6290   78.2810 C.3   123  THR123      0.1770
     90  OG1      198.6180  -74.4510   78.3260 O.3   123  THR123     -0.2211
     91  CG2      199.3330  -76.2560   76.8940 C.3   123  THR123      0.0375
@<TRIPOS>BOND
     1    75    74    2
     2    74    73    1
     3    76    73    1
     4    73    72    1
     5    69    68    2
     6    72    68   am
     7    68    67    1
     8    67    66    1
     9    67    70    1
    10    71    70    1
    11    54    53    1
    12    54    55    2
    13    62    64   ar
    14    62    59   ar
    15    64    65   ar
    16    53    56    1
    17    53    52    1
    18    56    57    1
    19    59    57   ar
    20    59    61   ar
    21    65    63   ar
    22    57    58   ar
    23    61    63   ar
    24    61    60   ar
    25    43    41    1
    26    58    60   ar
    27    42    41    1
    28    41    40    2
    29    40    39    1
    30    46    47    2
    31    46    45    1
    32    44    45    1
    33    39    38    1
    34    45    48    1
    35    38    37    1
    36    83    82    2
    37    37    34    1
    38    48    49    1
    39    84    82   am
    40    51    49    1
    41    31    30   ar
    42    82    81    1
    43    32    30   ar
    44    49    50    1
    45    30    29    1
    46    34    35    1
    47    34    33    1
    48    28    27    2
    49    77    78    1
    50    29    26    1
    51    81    78    1
    52    35    36    2
    53    26    27    1
    54    26    25    1
    55    78    79    1
    56    17    16    1
    57    22    21    2
    58    11    10   ar
    59    11     9   ar
    60    18    16    1
    61    10     8   ar
    62    25    21   am
    63    16    13    1
    64    21    20    1
    65     9     7   ar
    66    79    80    2
    67     8     6   ar
    68    91    89    1
    69     7     6   ar
    70     6     5    1
    71    19    20    1
    72    19    14   am
    73    20    23    1
    74    13    14    1
    75    13    12    1
    76    14    15    2
    77     5     2    1
    78    89    90    1
    79    89    86    1
    80    24    23    1
    81    85    86    1
    82    86    87    1
    83     2     3    1
    84     2     1    1
    85     4     3    2
    86    87    88    2
