@<TRIPOS>MOLECULE
tmp/2gk1A01.pdb
 138 136 0 0 0
SMALL
GASTEIGER

@<TRIPOS>ATOM
      1  N        -64.1340   70.5450   17.2770 N.3   142  ARG142     -0.1245
      2  CA       -64.3930   69.9490   18.5860 C.3   142  ARG142      0.1563
      3  C        -63.1180   69.4090   19.2040 C.2   142  ARG142      0.2260
      4  O        -62.9640   69.4040   20.4200 O.2   142  ARG142     -0.2867
      5  CB       -65.4340   68.8430   18.4680 C.3   142  ARG142      0.0307
      6  CG       -66.8750   69.3270   18.4840 C.3   142  ARG142      0.0489
      7  CD       -67.1180   70.5260   17.5850 C.3   142  ARG142      0.2205
      8  NE       -68.5170   70.9240   17.6300 N.pl3 142  ARG142     -0.0865
      9  CZ       -69.4610   70.4590   16.8180 C.cat 142  ARG142      0.5346
     10  NH1      -69.1690   69.5760   15.8750 N.pl3 142  ARG142      0.1354
     11  NH2      -70.7040   70.8860   16.9470 N.pl3 142  ARG142      0.1354
     12  N        -64.7840   70.2310    8.0500 N.3   168  HIS168     -0.1241
     13  CA       -65.5080   71.0760    8.9800 C.3   168  HIS168      0.1621
     14  C        -64.5010   71.8020    9.8780 C.2   168  HIS168      0.2264
     15  O        -64.3010   71.4220   11.0310 O.2   168  HIS168     -0.2867
     16  CB       -66.4620   70.2260    9.8070 C.3   168  HIS168      0.0745
     17  CG       -67.6020   70.9910   10.3930 C.ar  168  HIS168      0.0817
     18  ND1      -67.4590   71.8230   11.4800 N.ar  168  HIS168     -0.2268
     19  CD2      -68.9090   71.0390   10.0520 C.ar  168  HIS168      0.1154
     20  CE1      -68.6290   72.3550   11.7810 C.ar  168  HIS168      0.1986
     21  NE2      -69.5260   71.8950   10.9300 N.ar  168  HIS168     -0.2212
     22  N        -66.1080   75.7050   14.3540 N.3   171  ASP171     -0.1239
     23  CA       -67.3780   75.4620   15.0380 C.3   171  ASP171      0.1674
     24  C        -67.3190   76.1230   16.4150 C.2   171  ASP171      0.2266
     25  O        -66.3560   76.8190   16.7170 O.2   171  ASP171     -0.2867
     26  CB       -67.6280   73.9610   15.1640 C.3   171  ASP171      0.1410
     27  CG       -69.0900   73.6140   15.2800 C.2   171  ASP171      0.3668
     28  OD1      -69.5510   72.7560   14.5060 O.co2 171  ASP171     -0.2456
     29  OD2      -69.7810   74.1740   16.1510 O.co2 171  ASP171     -0.2456
     30  N        -73.5100   77.6740   15.1600 N.3   226  HIS226     -0.1241
     31  CA       -72.2080   77.0740   15.4380 C.3   226  HIS226      0.1621
     32  C        -71.0690   78.0630   15.2130 C.2   226  HIS226      0.2264
     33  O        -70.1300   77.7650   14.4690 O.2   226  HIS226     -0.2867
     34  CB       -71.9880   75.8410   14.5570 C.3   226  HIS226      0.0745
     35  CG       -72.9260   74.7150   14.8420 C.ar  226  HIS226      0.0817
     36  ND1      -72.6000   73.6710   15.6790 N.ar  226  HIS226     -0.2268
     37  CD2      -74.1780   74.4640   14.3940 C.ar  226  HIS226      0.1154
     38  CE1      -73.6160   72.8310   15.7440 C.ar  226  HIS226      0.1986
     39  NE2      -74.5840   73.2850   14.9670 N.ar  226  HIS226     -0.2212
     40  N        -76.9740   74.5250    9.6210 N.3   286  ASP286     -0.1225
     41  CA       -77.5920   73.5030   10.4660 C.3   286  ASP286      0.1805
     42  C        -77.8550   74.0430   11.8600 C.2   286  ASP286      0.2597
     43  O        -77.1210   74.9040   12.3480 O.2   286  ASP286     -0.2718
     44  CB       -76.6500   72.3190   10.6090 C.3   286  ASP286      0.1424
     45  CG       -75.3070   72.7280   11.1710 C.2   286  ASP286      0.3668
     46  OD1      -74.7630   73.7470   10.7010 O.co2 286  ASP286     -0.2456
     47  OD2      -74.7980   72.0680   12.0930 O.co2 286  ASP286     -0.2456
     48  N        -78.8910   73.5100   12.5030 N.am  287  GLU287     -0.1979
     49  CA       -79.2060   73.8040   13.9030 C.3   287  GLU287      0.1602
     50  C        -79.0660   75.2790   14.2640 C.2   287  GLU287      0.2287
     51  O        -78.3200   75.6400   15.1710 O.2   287  GLU287     -0.2864
     52  CB       -78.3500   72.9410   14.8320 C.3   287  GLU287      0.0415
     53  CG       -78.6560   71.4660   14.7110 C.3   287  GLU287      0.1163
     54  CD       -77.6140   70.6010   15.3760 C.2   287  GLU287      0.3649
     55  OE1      -76.4640   71.0600   15.5450 O.co2 287  GLU287     -0.2457
     56  OE2      -77.9520   69.4490   15.7220 O.co2 287  GLU287     -0.2457
     57  N        -76.5300   72.4790    4.4700 N.3   337  TRP337     -0.1241
     58  CA       -77.2610   71.4370    5.2240 C.3   337  TRP337      0.1605
     59  C        -78.7580   71.5440    4.9510 C.2   337  TRP337      0.2264
     60  O        -79.2210   72.5360    4.3820 O.2   337  TRP337     -0.2867
     61  CB       -77.0170   71.5180    6.7350 C.3   337  TRP337      0.0550
     62  CG       -75.6020   71.3030    7.1760 C.ar  337  TRP337      0.0003
     63  CD1      -74.7750   72.2300    7.7260 C.ar  337  TRP337      0.0946
     64  CD2      -74.8550   70.0860    7.1220 C.ar  337  TRP337      0.0152
     65  NE1      -73.5600   71.6750    8.0110 N.ar  337  TRP337     -0.2442
     66  CE2      -73.5790   70.3580    7.6450 C.ar  337  TRP337      0.0810
     67  CE3      -75.1380   68.7910    6.6800 C.ar  337  TRP337      0.0012
     68  CZ2      -72.5880   69.3890    7.7380 C.ar  337  TRP337      0.0191
     69  CZ3      -74.1510   67.8250    6.7750 C.ar  337  TRP337      0.0001
     70  CH2      -72.8940   68.1290    7.2980 C.ar  337  TRP337      0.0015
     71  N        -79.1640   65.2930    6.5050 N.3   356  TRP356     -0.1241
     72  CA       -78.4730   64.6860    7.6380 C.3   356  TRP356      0.1605
     73  C        -79.4000   64.1460    8.7160 C.2   356  TRP356      0.2264
     74  O        -78.9660   63.3810    9.5680 O.2   356  TRP356     -0.2867
     75  CB       -77.4480   65.6530    8.2390 C.3   356  TRP356      0.0550
     76  CG       -78.0360   66.8350    8.9530 C.ar  356  TRP356      0.0003
     77  CD1      -78.4670   67.9990    8.3930 C.ar  356  TRP356      0.0946
     78  CD2      -78.2340   66.9760   10.3660 C.ar  356  TRP356      0.0152
     79  NE1      -78.9310   68.8530    9.3620 N.ar  356  TRP356     -0.2442
     80  CE2      -78.7990   68.2500   10.5840 C.ar  356  TRP356      0.0810
     81  CE3      -77.9980   66.1460   11.4670 C.ar  356  TRP356      0.0012
     82  CZ2      -79.1380   68.7130   11.8560 C.ar  356  TRP356      0.0191
     83  CZ3      -78.3290   66.6120   12.7310 C.ar  356  TRP356      0.0001
     84  CH2      -78.8950   67.8860   12.9140 C.ar  356  TRP356      0.0015
     85  N        -73.5380   58.2360   10.1010 N.3   385  TYR385     -0.1241
     86  CA       -72.9010   59.0070   11.1770 C.3   385  TYR385      0.1605
     87  C        -71.9130   58.2100   12.0100 C.2   385  TYR385      0.2264
     88  O        -72.2840   57.5270   12.9640 O.2   385  TYR385     -0.2867
     89  CB       -73.9530   59.7010   12.0530 C.3   385  TYR385      0.0534
     90  CG       -74.2670   61.1040   11.5910 C.ar  385  TYR385     -0.0201
     91  CD1      -74.1490   61.4530   10.2420 C.ar  385  TYR385     -0.0009
     92  CD2      -74.6780   62.0780   12.4940 C.ar  385  TYR385     -0.0009
     93  CE1      -74.4220   62.7250    9.8040 C.ar  385  TYR385      0.0417
     94  CE2      -74.9570   63.3630   12.0630 C.ar  385  TYR385      0.0417
     95  CZ       -74.8250   63.6750   10.7110 C.ar  385  TYR385      0.1957
     96  OH       -75.0930   64.9410   10.2560 O.3   385  TYR385     -0.2866
     97  N        -69.6610   59.1280   14.0380 N.3   387  ASN387     -0.1225
     98  CA       -69.4520   59.5390   15.4150 C.3   387  ASN387      0.1785
     99  C        -70.3280   58.7240   16.3740 C.2   387  ASN387      0.2597
    100  O        -69.8820   58.3400   17.4590 O.2   387  ASN387     -0.2718
    101  CB       -69.6830   61.0430   15.5770 C.3   387  ASN387      0.1169
    102  CG       -70.9850   61.5020   14.9680 C.2   387  ASN387      0.2627
    103  OD1      -71.3340   61.1110   13.8570 O.2   387  ASN387     -0.2716
    104  ND2      -71.7120   62.3400   15.6920 N.am  387  ASN387     -0.0877
    105  N        -71.5620   58.4460   15.9520 N.am  388  ARG388     -0.1979
    106  CA       -72.4940   57.6140   16.7140 C.3   388  ARG388      0.1597
    107  C        -72.0740   56.1460   16.6810 C.2   388  ARG388      0.2287
    108  O        -72.4630   55.3920   15.7890 O.2   388  ARG388     -0.2864
    109  CB       -73.9180   57.7550   16.1640 C.3   388  ARG388      0.0334
    110  CG       -74.4010   59.1760   16.0520 C.3   388  ARG388      0.0492
    111  CD       -75.9040   59.2320   15.9820 C.3   388  ARG388      0.2205
    112  NE       -76.4050   60.3210   16.8140 N.pl3 388  ARG388     -0.0865
    113  CZ       -76.7880   60.1870   18.0840 C.cat 388  ARG388      0.5346
    114  NH1      -76.7480   59.0000   18.6910 N.pl3 388  ARG388      0.1354
    115  NH2      -77.2190   61.2500   18.7520 N.pl3 388  ARG388      0.1354
    116  N        -67.9350   63.4430   13.1600 N.3   424  TRP424     -0.1241
    117  CA       -67.9660   64.5840   14.0590 C.3   424  TRP424      0.1605
    118  C        -67.0660   64.3350   15.2650 C.2   424  TRP424      0.2264
    119  O        -66.8190   63.1900   15.6420 O.2   424  TRP424     -0.2867
    120  CB       -69.4000   64.8930   14.4740 C.3   424  TRP424      0.0550
    121  CG       -70.2780   65.2050   13.2990 C.ar  424  TRP424      0.0003
    122  CD1      -71.1180   64.3480   12.6610 C.ar  424  TRP424      0.0946
    123  CD2      -70.3800   66.4560   12.6070 C.ar  424  TRP424      0.0152
    124  NE1      -71.7490   64.9870   11.6220 N.ar  424  TRP424     -0.2442
    125  CE2      -71.3100   66.2810   11.5650 C.ar  424  TRP424      0.0810
    126  CE3      -69.7750   67.7070   12.7680 C.ar  424  TRP424      0.0012
    127  CZ2      -71.6520   67.3060   10.6890 C.ar  424  TRP424      0.0191
    128  CZ3      -70.1210   68.7270   11.8970 C.ar  424  TRP424      0.0001
    129  CH2      -71.0520   68.5210   10.8750 C.ar  424  TRP424      0.0015
    130  N        -66.7960   65.5750   18.7340 N.3   426  GLU426     -0.1245
    131  CA       -66.9960   65.7490   20.1780 C.3   426  GLU426      0.1567
    132  C        -66.1520   64.7610   20.9710 C.2   426  GLU426      0.2260
    133  O        -65.4490   65.1530   21.8940 O.2   426  GLU426     -0.2867
    134  CB       -68.4660   65.6170   20.5810 C.3   426  GLU426      0.0388
    135  CG       -69.3210   66.8070   20.2020 C.3   426  GLU426      0.1160
    136  CD       -69.9570   66.6870   18.8180 C.2   426  GLU426      0.3649
    137  OE1      -69.6020   65.7610   18.0490 O.co2 426  GLU426     -0.2457
    138  OE2      -70.8300   67.5280   18.5050 O.co2 426  GLU426     -0.2457
@<TRIPOS>BOND
     1    60    59    2
     2    57    58    1
     3    59    58    1
     4    58    61    1
     5    71    72    1
     6    67    69   ar
     7    67    64   ar
     8    61    62    1
     9    69    70   ar
    10    64    62   ar
    11    64    66   ar
    12    62    63   ar
    13    70    68   ar
    14    72    75    1
    15    72    73    1
    16    66    68   ar
    17    66    65   ar
    18    63    65   ar
    19    12    13    1
    20    75    76    1
    21    77    76   ar
    22    77    79   ar
    23    73    74    2
    24    76    78   ar
    25    13    16    1
    26    13    14    1
    27    79    80   ar
    28    40    41    1
    29    93    91   ar
    30    93    95   ar
    31    16    17    1
    32    14    15    2
    33    19    17   ar
    34    19    21   ar
    35    85    86    1
    36    91    90   ar
    37    96    95    1
    38    78    80   ar
    39    78    81   ar
    40    17    18   ar
    41    41    44    1
    42    41    42    1
    43    80    82   ar
    44    44    45    1
    45   127   129   ar
    46   127   125   ar
    47    46    45   ar
    48    95    94   ar
    49   129   128   ar
    50    21    20   ar
    51    45    47   ar
    52    86    87    1
    53    86    89    1
    54    81    83   ar
    55    18    20   ar
    56   125   124   ar
    57   125   123   ar
    58    90    89    1
    59    90    92   ar
    60   124   122   ar
    61    82    84   ar
    62    42    43    2
    63    42    48   am
    64   128   126   ar
    65    87    88    2
    66    94    92   ar
    67    48    49    1
    68   123   126   ar
    69   123   121   ar
    70   122   121   ar
    71    83    84   ar
    72   116   117    1
    73   121   120    1
    74   103   102    2
    75    49    50    1
    76    49    52    1
    77    97    98    1
    78   117   120    1
    79   117   118    1
    80    50    51    2
    81    22    23    1
    82    37    35   ar
    83    37    39   ar
    84    33    32    2
    85    28    27   ar
    86    34    35    1
    87    34    31    1
    88    53    52    1
    89    53    54    1
    90    35    36   ar
    91    39    38   ar
    92   102   101    1
    93   102   104   am
    94    23    26    1
    95    23    24    1
    96    30    31    1
    97    26    27    1
    98    32    31    1
    99   118   119    2
   100    27    29   ar
   101    54    55   ar
   102    54    56   ar
   103    98   101    1
   104    98    99    1
   105    36    38   ar
   106   108   107    2
   107    10     9    1
   108   105    99   am
   109   105   106    1
   110   111   110    1
   111   111   112    1
   112   110   109    1
   113   109   106    1
   114    99   100    2
   115    24    25    2
   116   107   106    1
   117   112   113    2
   118     9    11    1
   119     9     8    2
   120     1     2    1
   121     7     8    1
   122     7     6    1
   123   137   136   ar
   124   113   114    1
   125   113   115    1
   126     5     6    1
   127     5     2    1
   128   138   136   ar
   129     2     3    1
   130   130   131    1
   131   136   135    1
   132     3     4    2
   133   131   134    1
   134   131   132    1
   135   135   134    1
   136   132   133    2
