@<TRIPOS>MOLECULE
tmp/2gk1H01.pdb
 117 116 0 0 0
SMALL
GASTEIGER

@<TRIPOS>ATOM
      1  N       -144.6850   62.0950   64.5410 N.3   144  ARG144     -0.1245
      2  CA      -145.6070   61.5140   63.5750 C.3   144  ARG144      0.1563
      3  C       -144.8660   60.5440   62.6590 C.2   144  ARG144      0.2260
      4  O       -145.4540   59.5900   62.1470 O.2   144  ARG144     -0.2867
      5  CB      -146.3310   62.6030   62.7790 C.3   144  ARG144      0.0307
      6  CG      -147.6900   63.0060   63.3520 C.3   144  ARG144      0.0489
      7  CD      -147.5670   63.7770   64.6620 C.3   144  ARG144      0.2205
      8  NE      -147.5730   65.2230   64.4620 N.pl3 144  ARG144     -0.0865
      9  CZ      -148.6410   66.0020   64.6210 C.cat 144  ARG144      0.5346
     10  NH1     -149.8050   65.4880   65.0000 N.pl3 144  ARG144      0.1354
     11  NH2     -148.5440   67.3070   64.4150 N.pl3 144  ARG144      0.1354
     12  N       -152.0190   67.0520   72.1900 N.3   227  HIS227     -0.1241
     13  CA      -150.9880   66.2440   71.5240 C.3   227  HIS227      0.1621
     14  C       -150.0670   65.5560   72.5240 C.2   227  HIS227      0.2264
     15  O       -148.8500   65.7730   72.5250 O.2   227  HIS227     -0.2867
     16  CB      -150.1740   67.0830   70.5370 C.3   227  HIS227      0.0745
     17  CG      -150.9900   67.6710   69.4340 C.ar  227  HIS227      0.0817
     18  ND1     -150.9380   67.2030   68.1390 N.ar  227  HIS227     -0.2268
     19  CD2     -151.8850   68.6860   69.4320 C.ar  227  HIS227      0.1154
     20  CE1     -151.7620   67.9080   67.3860 C.ar  227  HIS227      0.1986
     21  NE2     -152.3490   68.8140   68.1460 N.ar  227  HIS227     -0.2212
     22  N       -151.9740   73.7510   71.3040 N.3   282  ASP282     -0.1225
     23  CA      -152.7900   73.9940   70.1170 C.3   282  ASP282      0.1805
     24  C       -153.7390   72.8330   69.8420 C.2   282  ASP282      0.2597
     25  O       -153.4390   71.6840   70.1790 O.2   282  ASP282     -0.2718
     26  CB      -151.9060   74.2510   68.8960 C.3   282  ASP282      0.1424
     27  CG      -151.0250   73.0670   68.5520 C.2   282  ASP282      0.3668
     28  OD1     -150.3190   72.5640   69.4500 O.co2 282  ASP282     -0.2456
     29  OD2     -151.0360   72.6410   67.3810 O.co2 282  ASP282     -0.2456
     30  N       -154.8800   73.1530   69.2270 N.am  283  GLU283     -0.1979
     31  CA      -155.9290   72.1800   68.8680 C.3   283  GLU283      0.1602
     32  C       -156.5240   71.4460   70.0810 C.2   283  GLU283      0.2287
     33  O       -157.1550   70.3960   69.9270 O.2   283  GLU283     -0.2864
     34  CB      -155.4200   71.1630   67.8290 C.3   283  GLU283      0.0415
     35  CG      -154.7180   71.7590   66.6130 C.3   283  GLU283      0.1163
     36  CD      -153.8600   70.7360   65.8800 C.2   283  GLU283      0.3649
     37  OE1     -152.6170   70.8230   65.9690 O.co2 283  GLU283     -0.2457
     38  OE2     -154.4270   69.8320   65.2260 O.co2 283  GLU283     -0.2457
     39  N       -148.2190   78.7120   70.5910 N.3   333  TRP333     -0.1241
     40  CA      -149.1700   78.7710   69.4710 C.3   333  TRP333      0.1605
     41  C       -150.2900   79.7820   69.7510 C.2   333  TRP333      0.2264
     42  O       -150.4480   80.2460   70.8840 O.2   333  TRP333     -0.2867
     43  CB      -149.7690   77.3890   69.1790 C.3   333  TRP333      0.0550
     44  CG      -148.7790   76.3610   68.7000 C.ar  333  TRP333      0.0003
     45  CD1     -148.3260   75.2810   69.3960 C.ar  333  TRP333      0.0946
     46  CD2     -148.1300   76.3110   67.4200 C.ar  333  TRP333      0.0152
     47  NE1     -147.4310   74.5630   68.6390 N.ar  333  TRP333     -0.2442
     48  CE2     -147.2920   75.1730   67.4210 C.ar  333  TRP333      0.0810
     49  CE3     -148.1700   77.1190   66.2760 C.ar  333  TRP333      0.0012
     50  CZ2     -146.5010   74.8200   66.3210 C.ar  333  TRP333      0.0191
     51  CZ3     -147.3850   76.7660   65.1810 C.ar  333  TRP333      0.0001
     52  CH2     -146.5610   75.6280   65.2140 C.ar  333  TRP333      0.0015
     53  N       -150.5620   80.5430   63.1100 N.3   352  TRP352     -0.1241
     54  CA      -150.5540   79.4360   62.1460 C.3   352  TRP352      0.1605
     55  C       -151.8610   79.2060   61.3620 C.2   352  TRP352      0.2264
     56  O       -151.8770   78.4190   60.4100 O.2   352  TRP352     -0.2867
     57  CB      -150.0980   78.1410   62.8310 C.3   352  TRP352      0.0550
     58  CG      -151.0430   77.6360   63.8750 C.ar  352  TRP352      0.0003
     59  CD1     -151.0570   77.9700   65.1960 C.ar  352  TRP352      0.0946
     60  CD2     -152.1180   76.7080   63.6840 C.ar  352  TRP352      0.0152
     61  NE1     -152.0700   77.3060   65.8440 N.ar  352  TRP352     -0.2442
     62  CE2     -152.7400   76.5270   64.9380 C.ar  352  TRP352      0.0810
     63  CE3     -152.6180   76.0130   62.5730 C.ar  352  TRP352      0.0012
     64  CZ2     -153.8360   75.6770   65.1160 C.ar  352  TRP352      0.0191
     65  CZ3     -153.7070   75.1700   62.7500 C.ar  352  TRP352      0.0001
     66  CH2     -154.3050   75.0110   64.0140 C.ar  352  TRP352      0.0015
     67  N       -147.1440   76.5200   55.5040 N.3   378  TYR378     -0.1241
     68  CA      -147.3070   75.1200   55.8700 C.3   378  TYR378      0.1605
     69  C       -146.8790   74.2360   54.7030 C.2   378  TYR378      0.2264
     70  O       -147.6770   73.9140   53.8180 O.2   378  TYR378     -0.2867
     71  CB      -148.7480   74.8530   56.3100 C.3   378  TYR378      0.0534
     72  CG      -148.9530   75.0440   57.7920 C.ar  378  TYR378     -0.0201
     73  CD1     -148.5220   76.2030   58.4390 C.ar  378  TYR378     -0.0009
     74  CD2     -149.5670   74.0660   58.5490 C.ar  378  TYR378     -0.0009
     75  CE1     -148.7020   76.3730   59.8070 C.ar  378  TYR378      0.0417
     76  CE2     -149.7520   74.2280   59.9000 C.ar  378  TYR378      0.0417
     77  CZ      -149.3220   75.3760   60.5310 C.ar  378  TYR378      0.1957
     78  OH      -149.5200   75.5050   61.8870 O.3   378  TYR378     -0.2866
     79  N       -145.7540   71.0480   54.3780 N.3   380  ASP380     -0.1225
     80  CA      -146.2970   69.6950   54.2490 C.3   380  ASP380      0.1805
     81  C       -147.6080   69.6380   53.4450 C.2   380  ASP380      0.2597
     82  O       -147.8970   68.6210   52.8110 O.2   380  ASP380     -0.2718
     83  CB      -146.4630   69.0430   55.6250 C.3   380  ASP380      0.1424
     84  CG      -147.4890   69.7520   56.4970 C.2   380  ASP380      0.3668
     85  OD1     -147.5130   71.0040   56.5410 O.co2 380  ASP380     -0.2456
     86  OD2     -148.2690   69.0360   57.1520 O.co2 380  ASP380     -0.2456
     87  N       -148.3860   70.7240   53.4750 N.am  381  LEU381     -0.1979
     88  CA      -149.5550   70.8780   52.6030 C.3   381  LEU381      0.1596
     89  C       -149.1050   71.0110   51.1490 C.2   381  LEU381      0.2287
     90  O       -148.7080   72.0940   50.7060 O.2   381  LEU381     -0.2864
     91  CB      -150.3950   72.0940   53.0060 C.3   381  LEU381      0.0297
     92  CG      -151.1740   72.0810   54.3220 C.3   381  LEU381      0.0022
     93  CD1     -151.7160   73.4680   54.6310 C.3   381  LEU381      0.0001
     94  CD2     -152.3010   71.0570   54.3150 C.3   381  LEU381      0.0001
     95  N       -144.8670   69.2520   58.8270 N.3   417  TRP417     -0.1241
     96  CA      -145.4890   68.2700   59.7140 C.3   417  TRP417      0.1605
     97  C       -145.4030   66.8750   59.1080 C.2   417  TRP417      0.2264
     98  O       -145.6470   66.6900   57.9130 O.2   417  TRP417     -0.2867
     99  CB      -146.9520   68.6310   59.9910 C.3   417  TRP417      0.0550
    100  CG      -147.1590   69.9440   60.6920 C.ar  417  TRP417      0.0003
    101  CD1     -147.6390   71.0970   60.1480 C.ar  417  TRP417      0.0946
    102  CD2     -146.8950   70.2300   62.0690 C.ar  417  TRP417      0.0152
    103  NE1     -147.6930   72.0830   61.0990 N.ar  417  TRP417     -0.2442
    104  CE2     -147.2410   71.5780   62.2880 C.ar  417  TRP417      0.0810
    105  CE3     -146.3970   69.4760   63.1380 C.ar  417  TRP417      0.0012
    106  CZ2     -147.1050   72.1910   63.5350 C.ar  417  TRP417      0.0191
    107  CZ3     -146.2620   70.0830   64.3740 C.ar  417  TRP417      0.0001
    108  CH2     -146.6140   71.4290   64.5630 C.ar  417  TRP417      0.0015
    109  N       -147.0070   63.9390   59.0900 N.3   419  GLU419     -0.1245
    110  CA      -148.1080   63.0010   58.8880 C.3   419  GLU419      0.1567
    111  C       -147.8240   62.0920   57.6950 C.2   419  GLU419      0.2260
    112  O       -148.0930   60.8910   57.7390 O.2   419  GLU419     -0.2867
    113  CB      -149.4340   63.7470   58.6970 C.3   419  GLU419      0.0388
    114  CG      -150.2350   63.9700   59.9810 C.3   419  GLU419      0.1160
    115  CD      -149.7060   65.0980   60.8590 C.2   419  GLU419      0.3649
    116  OE1     -148.6440   65.6790   60.5510 O.co2 419  GLU419     -0.2457
    117  OE2     -150.3630   65.4040   61.8730 O.co2 419  GLU419     -0.2457
@<TRIPOS>BOND
     1    90    89    2
     2    89    88    1
     3    88    91    1
     4    88    87    1
     5    82    81    2
     6    91    92    1
     7    81    87   am
     8    81    80    1
     9    70    69    2
    10    80    79    1
    11    80    83    1
    12    94    92    1
    13    92    93    1
    14    69    68    1
    15    67    68    1
    16    83    84    1
    17    68    71    1
    18    71    72    1
    19    84    85   ar
    20    84    86   ar
    21   111   112    2
    22   111   110    1
    23    72    73   ar
    24    72    74   ar
    25    98    97    2
    26    73    75   ar
    27    74    76   ar
    28   113   110    1
    29   113   114    1
    30    95    96    1
    31   110   109    1
    32    97    96    1
    33    96    99    1
    34    75    77   ar
    35    76    77   ar
    36   114   115    1
    37    99   100    1
    38   101   100   ar
    39   101   103   ar
    40    56    55    2
    41    77    78    1
    42   116   115   ar
    43   100   102   ar
    44   115   117   ar
    45   103   104   ar
    46    55    54    1
    47   102   104   ar
    48   102   105   ar
    49    54    57    1
    50    54    53    1
    51     4     3    2
    52   104   106   ar
    53    63    65   ar
    54    63    60   ar
    55     3     2    1
    56    65    66   ar
    57     5     6    1
    58     5     2    1
    59    57    58    1
    60   105   107   ar
    61     6     7    1
    62   106   108   ar
    63     2     1    1
    64    60    58   ar
    65    60    62   ar
    66    58    59   ar
    67    66    64   ar
    68   107   108   ar
    69    11     9    1
    70     8     9    2
    71     8     7    1
    72     9    10    1
    73    62    64   ar
    74    62    61   ar
    75    51    52   ar
    76    51    49   ar
    77    59    61   ar
    78    52    50   ar
    79    38    36   ar
    80    36    37   ar
    81    36    35    1
    82    49    46   ar
    83    50    48   ar
    84    35    34    1
    85    29    27   ar
    86    20    18   ar
    87    20    21   ar
    88    46    48   ar
    89    46    44   ar
    90    48    47   ar
    91    34    31    1
    92    18    17   ar
    93    21    19   ar
    94    27    26    1
    95    27    28   ar
    96    47    45   ar
    97    44    43    1
    98    44    45   ar
    99    31    30    1
   100    31    32    1
   101    26    23    1
   102    43    40    1
   103    30    24   am
   104    19    17   ar
   105    17    16    1
   106    40    41    1
   107    40    39    1
   108    41    42    2
   109    24    23    1
   110    24    25    2
   111    33    32    2
   112    23    22    1
   113    16    13    1
   114    13    12    1
   115    13    14    1
   116    14    15    2
