@<TRIPOS>MOLECULE
tmp/2gk6A00.pdb
 122 117 0 0 0
SMALL
GASTEIGER

@<TRIPOS>ATOM
      1  N          1.1380   -1.1670   19.3840 N.3   170  PRO170     -0.2102
      2  CA         2.3920   -1.5510   20.0420 C.3   170  PRO170      0.1504
      3  C          3.6030   -0.6890   19.6870 C.2   170  PRO170      0.2575
      4  O          3.6470   -0.0700   18.6200 O.2   170  PRO170     -0.2718
      5  CB         2.6140   -2.9820   19.5480 C.3   170  PRO170      0.0282
      6  CG         1.2860   -3.4560   19.1800 C.3   170  PRO170      0.0208
      7  CD         0.5990   -2.2800   18.5840 C.3   170  PRO170      0.0893
      8  N          4.5850   -0.6820   20.5850 N.am  171  ASP171     -0.1974
      9  CA         5.8090    0.0920   20.4050 C.3   171  ASP171      0.1708
     10  C          6.6640   -0.5020   19.2890 C.2   171  ASP171      0.2293
     11  O          7.1520   -1.6260   19.3970 O.2   171  ASP171     -0.2864
     12  CB         6.6010    0.1550   21.7160 C.3   171  ASP171      0.1436
     13  CG         6.1380    1.2810   22.6200 C.2   171  ASP171      0.3671
     14  OD1        6.2110    2.4570   22.1980 O.co2 171  ASP171     -0.2456
     15  OD2        5.6860    1.0920   23.7700 O.co2 171  ASP171     -0.2456
     16  N          9.4470   -1.7180   16.7980 N.3   173  ASN173     -0.1240
     17  CA        10.8210   -2.1930   16.9450 C.3   173  ASN173      0.1653
     18  C         11.7070   -1.5660   15.8720 C.2   173  ASN173      0.2266
     19  O         11.2030   -0.9120   14.9600 O.2   173  ASN173     -0.2867
     20  CB        10.8900   -3.7270   16.8930 C.3   173  ASN173      0.1155
     21  CG        10.4960   -4.3090   15.5270 C.2   173  ASN173      0.2627
     22  OD1       11.0860   -3.9850   14.4930 O.2   173  ASN173     -0.2716
     23  ND2        9.5070   -5.1900   15.5350 N.am  173  ASN173     -0.0877
     24  N         10.8460   -1.9730   12.1710 N.3   176  GLN176     -0.1245
     25  CA         9.5790   -1.2820   11.9040 C.3   176  GLN176      0.1566
     26  C          9.7240    0.2360   11.9300 C.2   176  GLN176      0.2260
     27  O          9.1100    0.9270   11.1350 O.2   176  GLN176     -0.2867
     28  CB         8.5130   -1.6850   12.9280 C.3   176  GLN176      0.0367
     29  CG         8.1690   -3.1770   12.9520 C.3   176  GLN176      0.0905
     30  CD         7.1720   -3.5430   14.0350 C.2   176  GLN176      0.2608
     31  OE1        6.6950   -4.6690   14.0820 O.2   176  GLN176     -0.2717
     32  NE2        6.8420   -2.5920   14.8900 N.am  176  GLN176     -0.0878
     33  N          6.3760  -14.1820    8.3620 N.3   195  PRO195     -0.2102
     34  CA         5.3470  -14.5780    9.3360 C.3   195  PRO195      0.1504
     35  C          5.4990  -13.9670   10.7360 C.2   195  PRO195      0.2576
     36  O          6.5010  -14.1870   11.4050 O.2   195  PRO195     -0.2718
     37  CB         5.5030  -16.0940    9.3780 C.3   195  PRO195      0.0282
     38  CG         5.9120  -16.4380    7.9680 C.3   195  PRO195      0.0208
     39  CD         6.8210  -15.3280    7.5430 C.3   195  PRO195      0.0893
     40  N          4.5160  -13.1660   11.1390 N.am  196  GLY196     -0.1943
     41  CA         4.4380  -12.6260   12.4850 C.3   196  GLY196      0.2014
     42  C          5.2970  -11.4060   12.7650 C.2   196  GLY196      0.2640
     43  O          5.5180  -11.0750   13.9300 O.2   196  GLY196     -0.2714
     44  N          5.7560  -10.7100   11.7270 N.am  197  THR197     -0.1936
     45  CA         6.7280   -9.6300   11.9180 C.3   197  THR197      0.2028
     46  C          6.1190   -8.2290   12.0360 C.2   197  THR197      0.2643
     47  O          6.8500   -7.2360   12.1010 O.2   197  THR197     -0.2714
     48  CB         7.8120   -9.6540   10.8140 C.3   197  THR197      0.1808
     49  OG1        7.2040   -9.7350    9.5200 O.3   197  THR197     -0.2208
     50  CG2        8.6760  -10.9180   10.9210 C.3   197  THR197      0.0379
     51  N          4.7960   -8.1430   12.0850 N.am  198  GLY198     -0.1939
     52  CA         4.1210   -6.8620   12.2310 C.3   198  GLY198      0.2014
     53  C          3.8290   -6.1140   10.9380 C.2   198  GLY198      0.2639
     54  O          4.0220   -4.9030   10.8750 O.2   198  GLY198     -0.2714
     55  N          3.4040   -6.8310    9.9020 N.am  199  LYS199     -0.1963
     56  CA         2.9250   -6.2260    8.6510 C.3   199  LYS199      0.1728
     57  C          1.7430   -5.2940    8.8810 C.2   199  LYS199      0.2617
     58  O          1.7140   -4.1830    8.3730 O.2   199  LYS199     -0.2715
     59  CB         2.5010   -7.3140    7.6480 C.3   199  LYS199      0.0311
     60  CG         3.6690   -8.0020    6.9630 C.3   199  LYS199      0.0038
     61  CD         3.2420   -9.0510    5.9460 C.3   199  LYS199      0.0206
     62  CE         2.5780  -10.2520    6.5940 C.3   199  LYS199      0.1093
     63  NZ         3.3610  -10.8120    7.7310 N.3   199  LYS199     -0.1314
     64  N          0.7770   -5.7690    9.6540 N.am  200  THR200     -0.1937
     65  CA        -0.4790   -5.0670    9.8790 C.3   200  THR200      0.2028
     66  C         -0.3860   -3.9860   10.9540 C.2   200  THR200      0.2642
     67  O         -0.9680   -2.9240   10.7940 O.2   200  THR200     -0.2714
     68  CB        -1.5730   -6.0780   10.2180 C.3   200  THR200      0.1808
     69  OG1       -1.5480   -7.1550    9.2600 O.3   200  THR200     -0.2208
     70  CG2       -2.9690   -5.4610   10.0450 C.3   200  THR200      0.0379
     71  N          0.3310   -4.2510   12.0470 N.am  201  VAL201     -0.1977
     72  CA         0.6750   -3.1960   13.0010 C.3   201  VAL201      0.1596
     73  C          1.4370   -2.0700   12.2940 C.2   201  VAL201      0.2287
     74  O          1.1200   -0.8940   12.4650 O.2   201  VAL201     -0.2864
     75  CB         1.5430   -3.7270   14.1740 C.3   201  VAL201      0.0276
     76  CG1        2.0650   -2.5770   15.0330 C.3   201  VAL201      0.0022
     77  CG2        0.7500   -4.6990   15.0320 C.3   201  VAL201      0.0022
     78  N         -6.9620   -2.2540   13.5370 N.3   234  LYS234     -0.1245
     79  CA        -5.7350   -1.6350   14.0130 C.3   234  LYS234      0.1561
     80  C         -5.7170   -0.1380   13.7440 C.2   234  LYS234      0.2260
     81  O         -5.2070    0.6210   14.5560 O.2   234  LYS234     -0.2867
     82  CB        -4.5120   -2.2960   13.3890 C.3   234  LYS234      0.0271
     83  CG        -4.4290   -3.7870   13.6410 C.3   234  LYS234      0.0035
     84  CD        -3.4890   -4.1390   14.7760 C.3   234  LYS234      0.0206
     85  CE        -3.4960   -5.6390   15.0210 C.3   234  LYS234      0.1093
     86  NZ        -2.8810   -6.3560   13.8740 N.3   234  LYS234     -0.1314
     87  N         -0.9950   -7.3490    2.5640 N.3   334  GLU334     -0.1245
     88  CA        -1.1460   -8.6900    2.0170 C.3   334  GLU334      0.1567
     89  C         -1.1100   -8.6340    0.4890 C.2   334  GLU334      0.2260
     90  O         -1.8170   -9.3770   -0.1820 O.2   334  GLU334     -0.2867
     91  CB        -2.4710   -9.3000    2.5110 C.3   334  GLU334      0.0388
     92  CG        -2.3960  -10.7730    2.8620 C.3   334  GLU334      0.1160
     93  CD        -1.4650  -11.0580    4.0260 C.2   334  GLU334      0.3649
     94  OE1       -1.4470  -10.2730    4.9860 O.co2 334  GLU334     -0.2457
     95  OE2       -0.7500  -12.0710    3.9760 O.co2 334  GLU334     -0.2457
     96  N          6.9380  -12.1940   16.2050 N.3   399  TYR399     -0.1227
     97  CA         6.2970  -12.2870   17.5070 C.3   399  TYR399      0.1736
     98  C          5.3600  -13.5000   17.6130 C.2   399  TYR399      0.2595
     99  O          4.5210  -13.5450   18.5030 O.2   399  TYR399     -0.2718
    100  CB         5.5300  -10.9850   17.7910 C.3   399  TYR399      0.0548
    101  CG         6.4050   -9.7440   17.8130 C.ar  399  TYR399     -0.0200
    102  CD1        6.8300   -9.1500   16.6290 C.ar  399  TYR399     -0.0009
    103  CD2        6.8080   -9.1630   19.0200 C.ar  399  TYR399     -0.0009
    104  CE1        7.6310   -8.0190   16.6350 C.ar  399  TYR399      0.0417
    105  CE2        7.6130   -8.0190   19.0390 C.ar  399  TYR399      0.0417
    106  CZ         8.0220   -7.4570   17.8440 C.ar  399  TYR399      0.1957
    107  OH         8.8140   -6.3350   17.8410 O.3   399  TYR399     -0.2866
    108  N          5.5140  -14.4950   16.7380 N.am  400  ARG400     -0.1980
    109  CA         4.5530  -15.6010   16.6940 C.3   400  ARG400      0.1597
    110  C          5.0010  -16.8820   17.3710 C.2   400  ARG400      0.2287
    111  O          4.2690  -17.4330   18.1760 O.2   400  ARG400     -0.2864
    112  CB         4.1660  -15.9420   15.2560 C.3   400  ARG400      0.0334
    113  CG         3.3730  -17.2420   15.1520 C.3   400  ARG400      0.0492
    114  CD         2.9240  -17.5790   13.7720 C.3   400  ARG400      0.2205
    115  NE         1.9100  -16.6430   13.2990 N.pl3 400  ARG400     -0.0865
    116  CZ         1.7280  -16.3050   12.0270 C.cat 400  ARG400      0.5346
    117  NH1        2.4910  -16.8310   11.0710 N.pl3 400  ARG400      0.1354
    118  NH2        0.7750  -15.4300   11.7080 N.pl3 400  ARG400      0.1354
    119  N         -1.9200  -16.4980    6.3070 N.3   528  GLY528     -0.1225
    120  CA        -2.3220  -15.3470    7.1000 C.3   528  GLY528      0.1811
    121  C         -2.9890  -15.7340    8.4090 C.2   528  GLY528      0.2280
    122  O         -3.7220  -14.9370    9.0110 O.2   528  GLY528     -0.2866
@<TRIPOS>BOND
     1    90    89    2
     2    89    88    1
     3    88    91    1
     4    88    87    1
     5    91    92    1
     6    92    93    1
     7    95    93   ar
     8    93    94   ar
     9    61    62    1
    10    61    60    1
    11   119   120    1
    12    62    63    1
    13    60    59    1
    14   120   121    1
    15    39    38    1
    16    39    33    1
    17    59    56    1
    18    38    37    1
    19    33    34    1
    20    58    57    2
    21   121   122    2
    22    56    57    1
    23    56    55    1
    24    57    64   am
    25    69    68    1
    26    34    37    1
    27    34    35    1
    28    49    48    1
    29    64    65    1
    30    65    68    1
    31    65    66    1
    32    55    53   am
    33    70    68    1
    34    35    40   am
    35    35    36    2
    36    67    66    2
    37    48    50    1
    38    48    45    1
    39    54    53    2
    40    53    52    1
    41    66    71   am
    42   117   116    1
    43    27    26    2
    44    40    41    1
    45   118   116    1
    46    44    45    1
    47    44    42   am
    48    25    26    1
    49    25    24    1
    50    25    28    1
    51    45    46    1
    52   116   115    2
    53    46    51   am
    54    46    47    2
    55    71    72    1
    56    51    52    1
    57    73    74    2
    58    73    72    1
    59    41    42    1
    60    42    43    2
    61    28    29    1
    62    29    30    1
    63    72    75    1
    64   115   114    1
    65    82    83    1
    66    82    79    1
    67    78    79    1
    68    83    84    1
    69    80    79    1
    70    80    81    2
    71   114   113    1
    72    86    85    1
    73    30    31    2
    74    30    32   am
    75    75    77    1
    76    75    76    1
    77    22    21    2
    78    84    85    1
    79    19    18    2
    80   113   112    1
    81   112   109    1
    82    21    23   am
    83    21    20    1
    84    18    17    1
    85    96    97    1
    86   102   104   ar
    87   102   101   ar
    88   104   106   ar
    89   109   108    1
    90   109   110    1
    91   108    98   am
    92    16    17    1
    93    20    17    1
    94   110   111    2
    95    97    98    1
    96    97   100    1
    97    98    99    2
    98   100   101    1
    99   101   103   ar
   100   107   106    1
   101   106   105   ar
   102     7     6    1
   103     7     1    1
   104     4     3    2
   105   103   105   ar
   106     6     5    1
   107    10    11    2
   108    10     9    1
   109     1     2    1
   110     5     2    1
   111     3     2    1
   112     3     8   am
   113     9     8    1
   114     9    12    1
   115    12    13    1
   116    14    13   ar
   117    13    15   ar
