@<TRIPOS>MOLECULE
tmp/2gkjA00.pdb
 121 111 0 0 0
SMALL
GASTEIGER

@<TRIPOS>ATOM
      1  N         24.2090    4.8700   10.2190 N.3    11  ASN11      -0.1240
      2  CA        24.3050    6.0240    9.3180 C.3    11  ASN11       0.1653
      3  C         25.7610    5.9780    8.8410 C.2    11  ASN11       0.2266
      4  O         26.6830    6.0710    9.6550 O.2    11  ASN11      -0.2867
      5  CB        23.9620    7.2750   10.1560 C.3    11  ASN11       0.1155
      6  CG        24.0980    8.6040    9.4000 C.2    11  ASN11       0.2627
      7  OD1       24.3070    9.6350   10.0350 O.2    11  ASN11      -0.2716
      8  ND2       23.9130    8.5990    8.0820 N.am   11  ASN11      -0.0877
      9  N         26.7250   10.0810    3.8210 N.3    44  GLN44      -0.1245
     10  CA        27.4910   11.3250    3.7800 C.3    44  GLN44       0.1566
     11  C         28.9530   11.0160    3.5150 C.2    44  GLN44       0.2260
     12  O         29.4220    9.9050    3.8070 O.2    44  GLN44      -0.2867
     13  CB        27.4010   12.0900    5.1110 C.3    44  GLN44       0.0367
     14  CG        26.1680   13.0170    5.2540 C.3    44  GLN44       0.0905
     15  CD        24.9530   12.3200    5.7790 C.2    44  GLN44       0.2608
     16  OE1       25.0420   11.3900    6.5940 O.2    44  GLN44      -0.2717
     17  NE2       23.7950   12.7580    5.3270 N.am   44  GLN44      -0.0878
     18  N         26.4470   15.6490    1.4920 N.3    64  ASN64      -0.1240
     19  CA        25.3520   14.7100    1.4170 C.3    64  ASN64       0.1653
     20  C         25.4890   13.8060    0.2080 C.2    64  ASN64       0.2266
     21  O         26.1930   14.1330   -0.7510 O.2    64  ASN64      -0.2867
     22  CB        24.0230   15.4570    1.3340 C.3    64  ASN64       0.1155
     23  CG        23.6170   16.0430    2.6610 C.2    64  ASN64       0.2627
     24  OD1       23.7170   15.3830    3.6840 O.2    64  ASN64      -0.2716
     25  ND2       23.1270   17.2870    2.6480 N.am   64  ASN64      -0.0877
     26  N         27.1960   20.7160    3.3440 N.3    70  VAL70      -0.1245
     27  CA        26.4730   21.2990    4.4690 C.3    70  VAL70       0.1561
     28  C         27.4360   21.5120    5.6520 C.2    70  VAL70       0.2260
     29  O         28.6200   21.1810    5.5410 O.2    70  VAL70      -0.2867
     30  CB        25.2640   20.4410    4.8740 C.3    70  VAL70       0.0252
     31  CG1       24.2420   20.4030    3.7340 C.3    70  VAL70       0.0019
     32  CG2       25.6990   19.0240    5.2350 C.3    70  VAL70       0.0019
     33  N         27.0130   20.6520    9.1770 N.3    72  GLN72      -0.1231
     34  CA        26.9350   19.8540   10.3990 C.3    72  GLN72       0.1698
     35  C         26.5580   18.4210   10.0780 C.2    72  GLN72       0.2592
     36  O         25.8540   18.1670    9.1100 O.2    72  GLN72      -0.2718
     37  CB        25.8640   20.4210   11.3320 C.3    72  GLN72       0.0381
     38  CG        25.6790   19.6570   12.6480 C.3    72  GLN72       0.0905
     39  CD        26.9380   19.6270   13.5030 C.2    72  GLN72       0.2608
     40  OE1       27.8030   18.7530   13.3330 O.2    72  GLN72      -0.2717
     41  NE2       27.0450   20.5770   14.4430 N.am   72  GLN72      -0.0878
     42  N         27.0520   17.5000   10.8970 N.am   73  CYS73      -0.1956
     43  CA        26.6210   16.1130   10.8820 C.3    73  CYS73       0.1843
     44  C         27.0960   15.5070   12.1930 C.2    73  CYS73       0.2626
     45  O         28.3080   15.4260   12.4420 O.2    73  CYS73      -0.2714
     46  CB        27.1830   15.3450    9.6910 C.3    73  CYS73       0.0997
     47  SG        26.7080   13.5550    9.7790 S.3    73  CYS73      -0.0797
     48  N         26.1470   15.1360   13.0550 N.am   74  GLY74      -0.1940
     49  CA        26.4660   14.6180   14.3760 C.3    74  GLY74       0.2014
     50  C         27.0610   13.2110   14.3730 C.2    74  GLY74       0.2638
     51  O         28.0750   12.9590   15.0050 O.2    74  GLY74      -0.2714
     52  N         26.4170   12.2700   13.6910 N.am   75  ASN75      -0.1972
     53  CA        26.9980   10.9370   13.6050 C.3    75  ASN75       0.1688
     54  C         28.3680   11.0540   12.9420 C.2    75  ASN75       0.2292
     55  O         29.3140   10.3670   13.3200 O.2    75  ASN75      -0.2864
     56  CB        26.1020   10.0070   12.7950 C.3    75  ASN75       0.1181
     57  CG        24.8220    9.6520   13.5230 C.2    75  ASN75       0.2629
     58  OD1       24.7910    9.6120   14.7550 O.2    75  ASN75      -0.2716
     59  ND2       23.7700    9.3550   12.7680 N.am   75  ASN75      -0.0877
     60  N         23.0380   22.9980   10.9640 N.3   157  ASN157     -0.1240
     61  CA        22.1360   22.6500    9.8760 C.3   157  ASN157      0.1653
     62  C         20.7110   22.8140   10.3830 C.2   157  ASN157      0.2266
     63  O         20.4880   22.7840   11.5960 O.2   157  ASN157     -0.2867
     64  CB        22.4160   21.2150    9.3560 C.3   157  ASN157      0.1155
     65  CG        22.3310   20.1480   10.4500 C.2   157  ASN157      0.2627
     66  OD1       22.3270   20.4550   11.6330 O.2   157  ASN157     -0.2716
     67  ND2       22.2460   18.8770   10.0390 N.am  157  ASN157     -0.0877
     68  N         16.0010   19.3490    7.6990 N.3   190  ASN190     -0.1240
     69  CA        15.8900   17.9780    8.1830 C.3   190  ASN190      0.1653
     70  C         14.6210   17.8730    8.9960 C.2   190  ASN190      0.2266
     71  O         14.4420   18.6060    9.9800 O.2   190  ASN190     -0.2867
     72  CB        17.0820   17.6180    9.0630 C.3   190  ASN190      0.1155
     73  CG        18.3960   17.6760    8.3050 C.2   190  ASN190      0.2627
     74  OD1       18.7140   16.7950    7.4970 O.2   190  ASN190     -0.2716
     75  ND2       19.1560   18.7330    8.5440 N.am  190  ASN190     -0.0877
     76  N         15.9780   13.2150    6.3740 N.3   208  GLU208     -0.1231
     77  CA        17.0900   14.1480    6.2120 C.3   208  GLU208      0.1699
     78  C         17.0260   14.9850    4.9550 C.2   208  GLU208      0.2592
     79  O         16.6510   14.5000    3.8920 O.2   208  GLU208     -0.2718
     80  CB        18.4060   13.3970    6.1300 C.3   208  GLU208      0.0402
     81  CG        18.8220   12.6100    7.3530 C.3   208  GLU208      0.1161
     82  CD        20.2620   12.1300    7.2260 C.2   208  GLU208      0.3649
     83  OE1       21.1590   12.9170    6.8210 O.co2 208  GLU208     -0.2457
     84  OE2       20.5330   10.9830    7.5850 O.co2 208  GLU208     -0.2457
     85  N         17.4630   16.2280    5.0660 N.am  209  ARG209     -0.1980
     86  CA        17.7490   17.0300    3.8760 C.3   209  ARG209      0.1597
     87  C         18.7880   16.2680    3.0350 C.2   209  ARG209      0.2287
     88  O         19.8020   15.8280    3.5570 O.2   209  ARG209     -0.2864
     89  CB        18.3420   18.3750    4.3100 C.3   209  ARG209      0.0334
     90  CG        18.7990   19.2530    3.1560 C.3   209  ARG209      0.0492
     91  CD        19.1930   20.6510    3.6510 C.3   209  ARG209      0.2205
     92  NE        20.3310   20.5820    4.5680 N.pl3 209  ARG209     -0.0865
     93  CZ        20.9760   21.6510    5.0240 C.cat 209  ARG209      0.5346
     94  NH1       20.5760   22.8670    4.6580 N.pl3 209  ARG209      0.1354
     95  NH2       22.0050   21.5010    5.8520 N.pl3 209  ARG209      0.1354
     96  N         19.2450   13.3670    1.8900 N.3   211  ALA211     -0.1245
     97  CA        19.5050   11.9300    2.0910 C.3   211  ALA211      0.1562
     98  C         18.3020   11.0270    2.3830 C.2   211  ALA211      0.2260
     99  O         18.4400    9.8010    2.2800 O.2   211  ALA211     -0.2867
    100  CB        20.6190   11.7000    3.1230 C.3   211  ALA211      0.0290
    101  N         19.9360    6.7120   11.2650 N.3   216  ALA216     -0.1231
    102  CA        20.1670    7.5610   12.4390 C.3   216  ALA216      0.1694
    103  C         20.6240    8.9350   12.0130 C.2   216  ALA216      0.2592
    104  O         21.3390    9.0500   11.0270 O.2   216  ALA216     -0.2718
    105  CB        21.2170    6.9400   13.3530 C.3   216  ALA216      0.0304
    106  N         20.2400    9.9660   12.7700 N.am  217  CYS217     -0.1956
    107  CA        20.7300   11.3220   12.5170 C.3   217  CYS217      0.1843
    108  C         21.0560   11.9640   13.8430 C.2   217  CYS217      0.2626
    109  O         20.1590   12.3090   14.6020 O.2   217  CYS217     -0.2714
    110  CB        19.7250   12.2440   11.8010 C.3   217  CYS217      0.0997
    111  SG        20.5820   13.6350   11.0960 S.3   217  CYS217     -0.0797
    112  N         22.3470   12.1090   14.1250 N.am  218  GLY218     -0.1940
    113  CA        22.7720   12.7170   15.3950 C.3   218  GLY218      0.2014
    114  C         22.3390   14.1610   15.5720 C.2   218  GLY218      0.2639
    115  O         21.8620   14.5560   16.6500 O.2   218  GLY218     -0.2714
    116  N         22.5710   14.9870   14.5540 N.am  219  SER219     -0.1949
    117  CA        22.1650   16.3880   14.6460 C.3   219  SER219      0.1924
    118  C         20.6460   16.4740   14.7640 C.2   219  SER219      0.2314
    119  O         20.1160   17.3860   15.4110 O.2   219  SER219     -0.2863
    120  CB        22.6890   17.2130   13.4750 C.3   219  SER219      0.2116
    121  OG        22.1330   16.8170   12.2290 O.3   219  SER219     -0.2180
@<TRIPOS>BOND
     1    21    20    2
     2    20    19    1
     3    22    19    1
     4    22    23    1
     5    19    18    1
     6    96    97    1
     7    97    98    1
     8    97   100    1
     9    99    98    2
    10    25    23   am
    11    23    24    2
    12    87    88    2
    13    87    86    1
    14    90    91    1
    15    90    89    1
    16    26    27    1
    17    11    10    1
    18    11    12    2
    19    91    92    1
    20    31    30    1
    21    10     9    1
    22    10    13    1
    23    86    89    1
    24    86    85    1
    25    79    78    2
    26    27    30    1
    27    27    28    1
    28    92    93    2
    29    94    93    1
    30    30    32    1
    31    78    85   am
    32    78    77    1
    33    93    95    1
    34    13    14    1
    35    14    15    1
    36    17    15   am
    37    29    28    2
    38    15    16    2
    39    80    77    1
    40    80    81    1
    41    77    76    1
    42    83    82   ar
    43    82    81    1
    44    82    84   ar
    45    74    73    2
    46    68    69    1
    47     8     6   am
    48    69    70    1
    49    69    72    1
    50    73    75   am
    51    73    72    1
    52     3     2    1
    53     3     4    2
    54    70    71    2
    55    36    35    2
    56    33    34    1
    57     2     5    1
    58     2     1    1
    59    64    61    1
    60    64    65    1
    61     6     7    2
    62     6     5    1
    63    46    47    1
    64    46    43    1
    65    61    62    1
    66    61    60    1
    67    67    65   am
    68    35    34    1
    69    35    42   am
    70    62    63    2
    71    34    37    1
    72    65    66    2
    73    43    42    1
    74    43    44    1
    75   104   103    2
    76   111   110    1
    77   101   102    1
    78    37    38    1
    79   110   107    1
    80   103   102    1
    81   103   106   am
    82    44    45    2
    83    44    48   am
    84   121   120    1
    85   102   105    1
    86   107   106    1
    87   107   108    1
    88    38    39    1
    89    59    57   am
    90    56    57    1
    91    56    53    1
    92    54    55    2
    93    54    53    1
    94    48    49    1
    95    40    39    2
    96   120   117    1
    97    39    41   am
    98    57    58    2
    99    53    52    1
   100    52    50   am
   101   108   112   am
   102   108   109    2
   103   112   113    1
   104    50    49    1
   105    50    51    2
   106   116   117    1
   107   116   114   am
   108   117   118    1
   109   118   119    2
   110   113   114    1
   111   114   115    2
