@<TRIPOS>MOLECULE
tmp/2gklA00.pdb
 119 115 0 0 0
SMALL
GASTEIGER

@<TRIPOS>ATOM
      1  N         14.7150   46.9250   62.0400 N.3    21  VAL21      -0.1245
      2  CA        16.0410   46.3790   62.1810 C.3    21  VAL21       0.1561
      3  C         15.8800   44.8640   62.2620 C.2    21  VAL21       0.2260
      4  O         15.2130   44.3670   63.1710 O.2    21  VAL21      -0.2867
      5  CB        16.6860   46.9580   63.4230 C.3    21  VAL21       0.0252
      6  CG1       18.0260   46.2960   63.7040 C.3    21  VAL21       0.0019
      7  CG2       16.8340   48.5130   63.2440 C.3    21  VAL21       0.0019
      8  N          8.4290   41.6390   65.9000 N.3    41  TRP41      -0.1241
      9  CA         8.2840   43.0940   66.0540 C.3    41  TRP41       0.1605
     10  C          6.8790   43.6640   66.2680 C.2    41  TRP41       0.2264
     11  O          6.7000   44.6120   67.0480 O.2    41  TRP41      -0.2867
     12  CB         8.8730   43.8040   64.8240 C.3    41  TRP41       0.0550
     13  CG        10.3500   44.0620   64.7790 C.ar   41  TRP41       0.0003
     14  CD1       11.2300   43.5880   63.8480 C.ar   41  TRP41       0.0946
     15  CD2       11.0900   44.9800   65.5940 C.ar   41  TRP41       0.0152
     16  NE1       12.4720   44.1070   64.0630 N.ar   41  TRP41      -0.2442
     17  CE2       12.4200   44.9680   65.1300 C.ar   41  TRP41       0.0810
     18  CE3       10.7630   45.7830   66.7010 C.ar   41  TRP41       0.0012
     19  CZ2       13.4220   45.7430   65.7120 C.ar   41  TRP41       0.0191
     20  CZ3       11.7670   46.5570   67.2820 C.ar   41  TRP41       0.0001
     21  CH2       13.0790   46.5170   66.7920 C.ar   41  TRP41       0.0015
     22  N         11.2520   44.2210   75.4990 N.3    70  HIS70      -0.1226
     23  CA        11.3610   45.1390   74.3730 C.3    70  HIS70       0.1752
     24  C         10.4590   44.8090   73.1870 C.2    70  HIS70       0.2597
     25  O          9.9710   43.6910   73.0500 O.2    70  HIS70      -0.2718
     26  CB        12.8120   45.2270   73.9080 C.3    70  HIS70       0.0759
     27  CG        13.6460   46.1320   74.7600 C.ar   70  HIS70       0.0818
     28  ND1       14.8410   46.6690   74.3300 N.ar   70  HIS70      -0.2268
     29  CD2       13.4400   46.6180   76.0090 C.ar   70  HIS70       0.1154
     30  CE1       15.3350   47.4420   75.2790 C.ar   70  HIS70       0.1986
     31  NE2       14.5060   47.4280   76.3100 N.ar   70  HIS70      -0.2212
     32  N         10.3090   45.8050   72.3130 N.am   71  THR71      -0.1939
     33  CA         9.4370   45.7440   71.1660 C.3    71  THR71       0.2028
     34  C          9.8240   44.6220   70.1900 C.2    71  THR71       0.2642
     35  O          8.9670   43.9990   69.5980 O.2    71  THR71      -0.2714
     36  CB         9.4790   47.1090   70.4220 C.3    71  THR71       0.1808
     37  OG1       10.8190   47.6360   70.4950 O.3    71  THR71      -0.2208
     38  CG2        8.4540   48.1100   71.0470 C.3    71  THR71       0.0379
     39  N         11.1250   44.3570   70.0370 N.am   72  ASP72      -0.1971
     40  CA        11.5530   43.2960   69.1100 C.3    72  ASP72       0.1709
     41  C         11.2990   41.8690   69.6060 C.2    72  ASP72       0.2293
     42  O         11.2920   40.9520   68.7940 O.2    72  ASP72      -0.2864
     43  CB        12.9820   43.4620   68.5830 C.3    72  ASP72       0.1436
     44  CG        14.0300   43.6390   69.6440 C.2    72  ASP72       0.3671
     45  OD1       13.7340   44.0320   70.7890 O.co2  72  ASP72      -0.2456
     46  OD2       15.2020   43.4290   69.2640 O.co2  72  ASP72      -0.2456
     47  N         10.9950   54.9530   72.2580 N.3   107  PHE107     -0.1227
     48  CA        12.3790   54.8400   71.8660 C.3   107  PHE107      0.1736
     49  C         12.5200   54.1490   70.5070 C.2   107  PHE107      0.2596
     50  O         13.3160   54.5500   69.6500 O.2   107  PHE107     -0.2718
     51  CB        13.1470   54.0710   72.9430 C.3   107  PHE107      0.0547
     52  CG        14.5720   53.8340   72.6010 C.ar  107  PHE107     -0.0202
     53  CD1       15.5230   54.7930   72.8740 C.ar  107  PHE107     -0.0042
     54  CD2       14.9620   52.6640   71.9790 C.ar  107  PHE107     -0.0042
     55  CE1       16.8390   54.5750   72.5610 C.ar  107  PHE107     -0.0003
     56  CE2       16.2810   52.4510   71.6600 C.ar  107  PHE107     -0.0003
     57  CZ        17.2100   53.4030   71.9510 C.ar  107  PHE107     -0.0000
     58  N         11.7430   53.0970   70.3080 N.am  108  THR108     -0.1953
     59  CA        11.7510   52.3990   69.0430 C.3   108  THR108      0.1897
     60  C         11.3410   53.3440   67.9080 C.2   108  THR108      0.2313
     61  O         11.9340   53.3280   66.8440 O.2   108  THR108     -0.2863
     62  CB        10.8220   51.2020   69.0940 C.3   108  THR108      0.1794
     63  OG1       11.2120   50.3680   70.2100 O.3   108  THR108     -0.2208
     64  CG2       10.9110   50.3850   67.7560 C.3   108  THR108      0.0378
     65  N         12.7430   54.5140   64.2590 N.3   112  LEU112     -0.1245
     66  CA        11.8370   53.8730   63.3170 C.3   112  LEU112      0.1561
     67  C         10.4480   54.5120   63.4160 C.2   112  LEU112      0.2260
     68  O          9.5280   53.9300   63.9790 O.2   112  LEU112     -0.2867
     69  CB        11.7150   52.3800   63.6560 C.3   112  LEU112      0.0270
     70  CG        13.0160   51.5870   63.6190 C.3   112  LEU112      0.0019
     71  CD1       12.8930   50.3060   64.4830 C.3   112  LEU112      0.0001
     72  CD2       13.4510   51.2470   62.1660 C.3   112  LEU112      0.0001
     73  N         22.0730   43.2390   77.8120 N.3   147  HIS147     -0.1241
     74  CA        21.4860   44.2120   76.8790 C.3   147  HIS147      0.1621
     75  C         20.3020   44.9480   77.5350 C.2   147  HIS147      0.2264
     76  O         20.1150   46.1320   77.3130 O.2   147  HIS147     -0.2867
     77  CB        21.1030   43.5240   75.5610 C.3   147  HIS147      0.0745
     78  CG        20.0740   44.2580   74.7600 C.ar  147  HIS147      0.0817
     79  ND1       18.7230   44.0130   74.8960 N.ar  147  HIS147     -0.2268
     80  CD2       20.1930   45.2160   73.8070 C.ar  147  HIS147      0.1154
     81  CE1       18.0530   44.7950   74.0590 C.ar  147  HIS147      0.1986
     82  NE2       18.9180   45.5540   73.4050 N.ar  147  HIS147     -0.2212
     83  N         18.4830   39.3870   72.2380 N.3   166  CYS166     -0.1235
     84  CA        19.2380   40.6160   71.9930 C.3   166  CYS166      0.1677
     85  C         20.6450   40.5890   72.6010 C.2   166  CYS166      0.2270
     86  O         21.4510   41.4980   72.3570 O.2   166  CYS166     -0.2867
     87  CB        18.4710   41.8110   72.5500 C.3   166  CYS166      0.0956
     88  SG        16.9060   42.0990   71.7260 S.3   166  CYS166     -0.0801
     89  N         24.9630   38.6520   69.2900 N.3   169  LYS169     -0.1245
     90  CA        24.7370   39.1800   67.9440 C.3   169  LYS169      0.1561
     91  C         26.1020   39.6010   67.4160 C.2   169  LYS169      0.2260
     92  O         27.0810   39.5450   68.1620 O.2   169  LYS169     -0.2867
     93  CB        23.7630   40.3770   67.9810 C.3   169  LYS169      0.0271
     94  CG        24.1870   41.4820   68.9340 C.3   169  LYS169      0.0035
     95  CD        23.0350   42.3040   69.4570 C.3   169  LYS169      0.0206
     96  CE        23.4810   43.1930   70.6210 C.3   169  LYS169      0.1093
     97  NZ        22.3300   43.8130   71.3320 N.3   169  LYS169     -0.1314
     98  N         25.3100   46.8720   68.5530 N.3   173  GLY173     -0.1210
     99  CA        23.8780   47.1080   68.6520 C.3   173  GLY173      0.1956
    100  C         23.5470   48.2200   69.6250 C.2   173  GLY173      0.2611
    101  O         24.3860   49.0690   69.9320 O.2   173  GLY173     -0.2717
    102  N         22.3390   48.1930   70.1610 N.am  174  ASN174     -0.1974
    103  CA        21.9020   49.2740   71.0230 C.3   174  ASN174      0.1688
    104  C         22.2310   49.0460   72.5040 C.2   174  ASN174      0.2292
    105  O         21.8720   48.0080   73.0660 O.2   174  ASN174     -0.2864
    106  CB        20.4280   49.5390   70.8220 C.3   174  ASN174      0.1181
    107  CG        20.0220   50.8420   71.3950 C.2   174  ASN174      0.2629
    108  OD1       19.7870   50.9490   72.5920 O.2   174  ASN174     -0.2716
    109  ND2       19.9490   51.8650   70.5470 N.am  174  ASN174     -0.0877
    110  N         20.1790   39.3870   66.2780 N.3   204  HIS204     -0.1241
    111  CA        20.2650   40.3750   65.2100 C.3   204  HIS204      0.1621
    112  C         21.4090   39.9590   64.3180 C.2   204  HIS204      0.2264
    113  O         22.1320   39.0320   64.6580 O.2   204  HIS204     -0.2867
    114  CB        20.5070   41.7790   65.7650 C.3   204  HIS204      0.0745
    115  CG        19.3820   42.2610   66.5990 C.ar  204  HIS204      0.0817
    116  ND1       18.1760   42.6570   66.0560 N.ar  204  HIS204     -0.2268
    117  CD2       19.2320   42.3070   67.9430 C.ar  204  HIS204      0.1154
    118  CE1       17.3460   42.9700   67.0390 C.ar  204  HIS204      0.1986
    119  NE2       17.9670   42.7800   68.1880 N.ar  204  HIS204     -0.2212
@<TRIPOS>BOND
     1     1     2    1
     2    72    70    1
     3     2     3    1
     4     2     5    1
     5     3     4    2
     6     7     5    1
     7    66    67    1
     8    66    69    1
     9    66    65    1
    10    67    68    2
    11     5     6    1
    12    70    69    1
    13    70    71    1
    14    14    16   ar
    15    14    13   ar
    16    16    17   ar
    17   112   113    2
    18   112   111    1
    19    13    12    1
    20    13    15   ar
    21    12     9    1
    22    17    15   ar
    23    17    19   ar
    24   111   114    1
    25   111   110    1
    26    15    18   ar
    27    19    21   ar
    28   114   115    1
    29     8     9    1
    30     9    10    1
    31   116   115   ar
    32   116   118   ar
    33    10    11    2
    34   115   117   ar
    35    18    20   ar
    36    21    20   ar
    37    61    60    2
    38   118   119   ar
    39    91    90    1
    40    91    92    2
    41    64    62    1
    42    60    59    1
    43   117   119   ar
    44    90    93    1
    45    90    89    1
    46    93    94    1
    47    98    99    1
    48    43    40    1
    49    43    44    1
    50    99   100    1
    51    42    41    2
    52    94    95    1
    53    59    62    1
    54    59    58    1
    55    62    63    1
    56    40    41    1
    57    40    39    1
    58    46    44   ar
    59    95    96    1
    60    35    34    2
    61   100   101    2
    62   100   102   am
    63    44    45   ar
    64    50    49    2
    65    39    34   am
    66   102   103    1
    67    34    33    1
    68    58    49   am
    69    36    37    1
    70    36    38    1
    71    36    33    1
    72    49    48    1
    73   109   107   am
    74    96    97    1
    75   106   103    1
    76   106   107    1
    77   103   104    1
    78    33    32    1
    79   107   108    2
    80    56    57   ar
    81    56    54   ar
    82    88    87    1
    83    48    47    1
    84    48    51    1
    85    57    55   ar
    86    54    52   ar
    87    84    83    1
    88    84    87    1
    89    84    85    1
    90    32    24   am
    91    86    85    2
    92   104   105    2
    93    55    53   ar
    94    52    53   ar
    95    52    51    1
    96    25    24    2
    97    24    23    1
    98    82    80   ar
    99    82    81   ar
   100    80    78   ar
   101    26    23    1
   102    26    27    1
   103    81    79   ar
   104    28    27   ar
   105    28    30   ar
   106    23    22    1
   107    78    79   ar
   108    78    77    1
   109    27    29   ar
   110    30    31   ar
   111    77    74    1
   112    29    31   ar
   113    74    75    1
   114    74    73    1
   115    76    75    2
