@<TRIPOS>MOLECULE
tmp/2gkoA00.pdb
 99 93 0 0 0
SMALL
GASTEIGER

@<TRIPOS>ATOM
      1  N          3.4080   45.8920   36.7620 N.3    34  ASP34      -0.1239
      2  CA         4.6320   46.1660   37.5320 C.3    34  ASP34       0.1674
      3  C          5.3590   47.3780   36.9480 C.2    34  ASP34       0.2266
      4  O          4.7360   48.2140   36.2970 O.2    34  ASP34      -0.2867
      5  CB         5.4960   44.8730   37.5620 C.3    34  ASP34       0.1410
      6  CG         6.3010   44.7280   38.8320 C.2    34  ASP34       0.3668
      7  OD1        7.1150   45.6590   39.1530 O.co2  34  ASP34      -0.2456
      8  OD2        6.2120   43.7140   39.5520 O.co2  34  ASP34      -0.2456
      9  N         12.2120   45.5360   38.8410 N.3    71  HIS71      -0.1241
     10  CA        11.2100   44.6740   39.4900 C.3    71  HIS71       0.1621
     11  C         10.3630   43.8890   38.5030 C.2    71  HIS71       0.2264
     12  O         10.1650   42.6990   38.6530 O.2    71  HIS71      -0.2867
     13  CB        10.2430   45.5000   40.3310 C.3    71  HIS71       0.0745
     14  CG        10.8630   46.2070   41.4820 C.ar   71  HIS71       0.0817
     15  ND1       10.1160   46.9440   42.3800 N.ar   71  HIS71      -0.2268
     16  CD2       12.1440   46.2780   41.9100 C.ar   71  HIS71       0.1154
     17  CE1       10.9180   47.4490   43.3030 C.ar   71  HIS71       0.1986
     18  NE2       12.1540   47.0660   43.0340 N.ar   71  HIS71      -0.2212
     19  N         10.2930   39.8170   38.1290 N.3    75  VAL75      -0.1245
     20  CA         9.0560   39.1070   38.3040 C.3    75  VAL75       0.1561
     21  C          8.6720   38.3130   37.0680 C.2    75  VAL75       0.2260
     22  O          8.2990   37.1500   37.1690 O.2    75  VAL75      -0.2867
     23  CB         7.9660   40.1530   38.7090 C.3    75  VAL75       0.0252
     24  CG1        6.5730   39.5920   38.6610 C.3    75  VAL75       0.0019
     25  CG2        8.2950   40.6930   40.1050 C.3    75  VAL75       0.0019
     26  N          2.8250   41.9850   41.9010 N.3   138  SER138     -0.1202
     27  CA         3.8810   41.9440   42.8900 C.3   138  SER138      0.2020
     28  C          4.0180   43.3250   43.5030 C.2   138  SER138      0.2619
     29  O          5.0020   44.0400   43.3080 O.2   138  SER138     -0.2717
     30  CB         5.1760   41.4510   42.2500 C.3   138  SER138      0.2103
     31  OG         5.1180   40.0630   42.0400 O.3   138  SER138     -0.2182
     32  N          2.9680   43.7100   44.2240 N.am  139  LEU139     -0.1965
     33  CA         2.8840   45.0440   44.7760 C.3   139  LEU139      0.1728
     34  C          1.8880   44.9850   45.9050 C.2   139  LEU139      0.2616
     35  O          1.0700   44.0740   46.0000 O.2   139  LEU139     -0.2715
     36  CB         2.4990   46.0570   43.6920 C.3   139  LEU139      0.0311
     37  CG         1.1990   45.8430   42.9250 C.3   139  LEU139      0.0022
     38  CD1        0.0250   46.4170   43.6950 C.3   139  LEU139      0.0001
     39  CD2        1.2620   46.4580   41.5210 C.3   139  LEU139      0.0001
     40  N          1.9760   45.9510   46.8020 N.am  140  GLY140     -0.1955
     41  CA         1.0690   45.9390   47.9270 C.3   140  GLY140      0.1869
     42  C          1.1190   47.2240   48.6960 C.2   140  GLY140      0.2309
     43  O          2.0580   47.9950   48.5830 O.2   140  GLY140     -0.2863
     44  N          1.3900   39.4110   45.6650 N.3   165  ALA165     -0.1245
     45  CA         2.2410   39.3460   46.8280 C.3   165  ALA165      0.1562
     46  C          1.4250   39.5070   48.1150 C.2   165  ALA165      0.2260
     47  O          0.5650   40.3770   48.2020 O.2   165  ALA165     -0.2867
     48  CB         3.2600   40.4460   46.7520 C.3   165  ALA165      0.0290
     49  N          2.7340   40.6960   50.8230 N.3   167  GLY167     -0.1210
     50  CA         3.3260   41.8600   51.4460 C.3   167  GLY167      0.1956
     51  C          4.5830   41.5020   52.2180 C.2   167  GLY167      0.2611
     52  O          4.8580   40.3520   52.5510 O.2   167  GLY167     -0.2717
     53  N          5.3660   42.5320   52.5040 N.am  168  ASN168     -0.1974
     54  CA         6.6570   42.3730   53.1700 C.3   168  ASN168      0.1688
     55  C          6.6660   43.0080   54.5670 C.2   168  ASN168      0.2292
     56  O          7.6980   43.5070   54.9950 O.2   168  ASN168     -0.2864
     57  CB         7.7550   43.0150   52.3350 C.3   168  ASN168      0.1181
     58  CG         7.9550   42.3550   50.9930 C.2   168  ASN168      0.2629
     59  OD1        7.4890   41.2490   50.7520 O.2   168  ASN168     -0.2716
     60  ND2        8.6920   43.0240   50.1280 N.am  168  ASN168     -0.0877
     61  N         17.1850   39.1640   44.5000 N.3   245  ILE245     -0.1231
     62  CA        16.4680   39.9460   45.5050 C.3   245  ILE245      0.1692
     63  C         15.4580   39.0870   46.2640 C.2   245  ILE245      0.2593
     64  O         15.1610   37.9690   45.8650 O.2   245  ILE245     -0.2718
     65  CB        15.7560   41.1750   44.8520 C.3   245  ILE245      0.0266
     66  CG1       14.8890   40.7700   43.6500 C.3   245  ILE245      0.0019
     67  CG2       16.7720   42.2380   44.4960 C.3   245  ILE245      0.0020
     68  CD1       13.9960   41.8970   43.1310 C.3   245  ILE245      0.0001
     69  N         14.9030   39.6420   47.3400 N.am  246  SER246     -0.1938
     70  CA        13.9440   38.9500   48.1950 C.3   246  SER246      0.2055
     71  C         12.6810   39.7740   48.3640 C.2   246  SER246      0.2644
     72  O         12.7610   40.9730   48.5690 O.2   246  SER246     -0.2714
     73  CB        14.5070   38.7440   49.5930 C.3   246  SER246      0.2130
     74  OG        15.7090   38.0250   49.5540 O.3   246  SER246     -0.2179
     75  N         11.5370   39.1130   48.3560 N.am  247  GLY247     -0.1939
     76  CA        10.2650   39.7670   48.6050 C.3   247  GLY247      0.2014
     77  C          9.1200   38.8420   48.3150 C.2   247  GLY247      0.2640
     78  O          9.2700   37.8700   47.5800 O.2   247  GLY247     -0.2714
     79  N          7.9500   39.1320   48.8650 N.am  248  THR248     -0.1936
     80  CA         6.7640   38.3830   48.4270 C.3   248  THR248      0.2028
     81  C          6.4820   38.6910   46.9500 C.2   248  THR248      0.2643
     82  O          5.8120   37.9300   46.2850 O.2   248  THR248     -0.2714
     83  CB         5.5210   38.6710   49.2870 C.3   248  THR248      0.1808
     84  OG1        5.2850   40.0840   49.3930 O.3   248  THR248     -0.2208
     85  CG2        5.7070   38.1310   50.7010 C.3   248  THR248      0.0379
     86  N          7.0440   39.7860   46.4440 N.am  249  SER249     -0.1935
     87  CA         7.0320   40.0950   45.0060 C.3   249  SER249      0.2055
     88  C          7.6730   39.0140   44.1650 C.2   249  SER249      0.2642
     89  O          7.3350   38.8940   42.9900 O.2   249  SER249     -0.2714
     90  CB         7.7880   41.3880   44.7210 C.3   249  SER249      0.2130
     91  OG         6.9620   42.4920   45.0410 O.3   249  SER249     -0.2179
     92  N          8.6360   38.2960   44.7540 N.am  250  MET250     -0.1976
     93  CA         9.3580   37.2180   44.0730 C.3   250  MET250      0.1605
     94  C          8.5780   35.9070   44.1360 C.2   250  MET250      0.2287
     95  O          8.6570   35.0780   43.2190 O.2   250  MET250     -0.2864
     96  CB        10.7420   37.0220   44.7090 C.3   250  MET250      0.0413
     97  CG        11.7950   38.0830   44.3440 C.3   250  MET250      0.0598
     98  SD        11.4120   39.8200   44.8180 S.3   250  MET250     -0.1393
     99  CE        10.8040   40.4580   43.2460 C.3   250  MET250      0.0692
@<TRIPOS>BOND
     1     4     3    2
     2     1     2    1
     3     3     2    1
     4    21    22    2
     5    21    20    1
     6     2     5    1
     7     5     6    1
     8    19    20    1
     9    20    23    1
    10    11    12    2
    11    11    10    1
    12    24    23    1
    13    23    25    1
    14     6     7   ar
    15     6     8   ar
    16     9    10    1
    17    10    13    1
    18    13    14    1
    19    14    16   ar
    20    14    15   ar
    21    39    37    1
    22    26    27    1
    23    16    18   ar
    24    31    30    1
    25    30    27    1
    26    15    17   ar
    27    27    28    1
    28    37    36    1
    29    37    38    1
    30    89    88    2
    31    18    17   ar
    32    68    66    1
    33    95    94    2
    34    99    98    1
    35    29    28    2
    36    28    32   am
    37    66    65    1
    38    36    33    1
    39    93    94    1
    40    93    96    1
    41    93    92    1
    42    88    92   am
    43    88    87    1
    44    32    33    1
    45    97    96    1
    46    97    98    1
    47    67    65    1
    48    61    62    1
    49    90    87    1
    50    90    91    1
    51    33    34    1
    52    65    62    1
    53    87    86    1
    54    62    63    1
    55    44    45    1
    56    64    63    2
    57    34    35    2
    58    34    40   am
    59    63    69   am
    60    82    81    2
    61    86    81   am
    62    48    45    1
    63    40    41    1
    64    45    46    1
    65    81    80    1
    66    69    70    1
    67    78    77    2
    68    41    42    1
    69    46    47    2
    70    70    71    1
    71    70    73    1
    72    77    76    1
    73    77    79   am
    74    75    71   am
    75    75    76    1
    76    71    72    2
    77    80    79    1
    78    80    83    1
    79    43    42    2
    80    83    84    1
    81    83    85    1
    82    74    73    1
    83    60    58   am
    84    59    58    2
    85    49    50    1
    86    58    57    1
    87    50    51    1
    88    51    53   am
    89    51    52    2
    90    57    54    1
    91    53    54    1
    92    54    55    1
    93    55    56    2
