@<TRIPOS>MOLECULE
tmp/2gksB01.pdb
 115 110 0 0 0
SMALL
GASTEIGER

@<TRIPOS>ATOM
      1  N         15.2930   35.1580   60.1990 N.3   364  PRO364     -0.2102
      2  CA        15.5710   33.7150   60.1290 C.3   364  PRO364      0.1504
      3  C         16.9110   33.3960   60.7960 C.2   364  PRO364      0.2576
      4  O         17.8550   34.1860   60.6770 O.2   364  PRO364     -0.2718
      5  CB        15.6420   33.4480   58.6200 C.3   364  PRO364      0.0282
      6  CG        14.7440   34.4840   58.0180 C.3   364  PRO364      0.0208
      7  CD        14.9000   35.7160   58.8910 C.3   364  PRO364      0.0893
      8  N         16.9750   32.2770   61.5190 N.am  365  CYS365     -0.1957
      9  CA        18.1940   31.8420   62.2190 C.3   365  CYS365      0.1843
     10  C         18.6640   32.7700   63.3700 C.2   365  CYS365      0.2625
     11  O         19.7360   32.5480   63.9440 O.2   365  CYS365     -0.2714
     12  CB        19.3530   31.5680   61.2330 C.3   365  CYS365      0.0997
     13  SG        18.9930   30.4460   59.8470 S.3   365  CYS365     -0.0797
     14  N         17.8660   33.7950   63.6940 N.am  366  ALA366     -0.1963
     15  CA        18.1150   34.6670   64.8700 C.3   366  ALA366      0.1728
     16  C         18.1640   33.8820   66.1820 C.2   366  ALA366      0.2617
     17  O         18.8460   34.2850   67.1430 O.2   366  ALA366     -0.2715
     18  CB        17.0750   35.7740   64.9610 C.3   366  ALA366      0.0334
     19  N         17.4420   32.7640   66.2020 N.am  367  GLY367     -0.1940
     20  CA        17.4530   31.8370   67.3150 C.3   367  GLY367      0.2014
     21  C         16.1190   31.7610   68.0360 C.2   367  GLY367      0.2639
     22  O         16.0890   31.3900   69.1990 O.2   367  GLY367     -0.2714
     23  N         15.0180   32.0910   67.3560 N.am  368  LYS368     -0.1963
     24  CA        13.7000   32.1470   68.0120 C.3   368  LYS368      0.1728
     25  C         13.2290   30.7940   68.5540 C.2   368  LYS368      0.2617
     26  O         12.7610   30.7210   69.6950 O.2   368  LYS368     -0.2715
     27  CB        12.6250   32.7210   67.0800 C.3   368  LYS368      0.0311
     28  CG        12.8860   34.1350   66.5600 C.3   368  LYS368      0.0038
     29  CD        11.8730   34.5320   65.4670 C.3   368  LYS368      0.0206
     30  CE        11.9440   33.5920   64.2350 C.3   368  LYS368      0.1093
     31  NZ        13.2770   33.6460   63.5360 N.3   368  LYS368     -0.1314
     32  N         13.3460   29.7410   67.7330 N.am  369  SER369     -0.1936
     33  CA        12.9330   28.3870   68.0950 C.3   369  SER369      0.2055
     34  C         13.7160   27.8360   69.2700 C.2   369  SER369      0.2644
     35  O         13.1560   27.1700   70.1330 O.2   369  SER369     -0.2714
     36  CB        13.1420   27.4040   66.9310 C.3   369  SER369      0.2130
     37  OG        12.5750   27.9000   65.7500 O.3   369  SER369     -0.2179
     38  N         15.0240   28.0630   69.2600 N.am  370  THR370     -0.1936
     39  CA        15.9030   27.5400   70.3020 C.3   370  THR370      0.2028
     40  C         15.5430   28.1910   71.6340 C.2   370  THR370      0.2642
     41  O         15.3560   27.5030   72.6360 O.2   370  THR370     -0.2714
     42  CB        17.3760   27.7880   69.9540 C.3   370  THR370      0.1808
     43  OG1       17.6210   27.3060   68.6280 O.3   370  THR370     -0.2208
     44  CG2       18.3020   27.0790   70.9400 C.3   370  THR370      0.0379
     45  N         15.4180   29.5150   71.6170 N.am  371  ILE371     -0.1977
     46  CA        15.0560   30.2780   72.8030 C.3   371  ILE371      0.1596
     47  C         13.6680   29.8900   73.3310 C.2   371  ILE371      0.2287
     48  O         13.5030   29.6970   74.5420 O.2   371  ILE371     -0.2864
     49  CB        15.1720   31.8030   72.5430 C.3   371  ILE371      0.0276
     50  CG1       16.6220   32.1650   72.1740 C.3   371  ILE371      0.0022
     51  CG2       14.6900   32.5990   73.7720 C.3   371  ILE371      0.0022
     52  CD1       16.7870   33.5320   71.5590 C.3   371  ILE371      0.0001
     53  N          8.9950   34.5540   62.4640 N.3   435  VAL435     -0.1245
     54  CA         9.7310   35.7210   61.9860 C.3   435  VAL435      0.1561
     55  C          8.8460   36.9560   62.1310 C.2   435  VAL435      0.2260
     56  O          9.3280   38.0260   62.5440 O.2   435  VAL435     -0.2867
     57  CB        10.2420   35.5520   60.5320 C.3   435  VAL435      0.0252
     58  CG1       10.9520   36.8240   60.0490 C.3   435  VAL435      0.0019
     59  CG2       11.1780   34.3430   60.4250 C.3   435  VAL435      0.0019
     60  N         25.8570   30.5450   61.4530 N.3   469  ARG469     -0.1245
     61  CA        25.3220   29.6260   62.4560 C.3   469  ARG469      0.1563
     62  C         25.1230   28.2150   61.8990 C.2   469  ARG469      0.2260
     63  O         24.3430   27.4290   62.4420 O.2   469  ARG469     -0.2867
     64  CB        24.0290   30.1990   63.0640 C.3   469  ARG469      0.0307
     65  CG        24.3280   31.3070   64.0860 C.3   469  ARG469      0.0489
     66  CD        23.1210   32.1480   64.4500 C.3   469  ARG469      0.2205
     67  NE        23.5350   33.3140   65.2350 N.pl3 469  ARG469     -0.0865
     68  CZ        22.7160   34.1630   65.8520 C.cat 469  ARG469      0.5346
     69  NH1       21.4010   33.9940   65.8030 N.pl3 469  ARG469      0.1354
     70  NH2       23.2230   35.1810   66.5310 N.pl3 469  ARG469      0.1354
     71  N         23.7050   27.0760   59.1670 N.3   471  VAL471     -0.1245
     72  CA        22.4780   26.7660   58.4460 C.3   471  VAL471      0.1561
     73  C         22.6920   27.1640   56.9750 C.2   471  VAL471      0.2260
     74  O         22.6700   28.3470   56.6150 O.2   471  VAL471     -0.2867
     75  CB        21.2450   27.4720   59.0490 C.3   471  VAL471      0.0252
     76  CG1       19.9820   27.1000   58.2770 C.3   471  VAL471      0.0019
     77  CG2       21.0800   27.1130   60.5350 C.3   471  VAL471      0.0019
     78  N         14.6110   28.2510   55.9960 N.3   479  LYS479     -0.1245
     79  CA        14.5500   29.3720   56.9390 C.3   479  LYS479      0.1561
     80  C         14.1460   30.7060   56.3060 C.2   479  LYS479      0.2260
     81  O         13.2830   31.4130   56.8440 O.2   479  LYS479     -0.2867
     82  CB        15.8970   29.5290   57.6480 C.3   479  LYS479      0.0271
     83  CG        16.1990   28.4410   58.6800 C.3   479  LYS479      0.0035
     84  CD        15.3760   28.6370   59.9260 C.3   479  LYS479      0.0206
     85  CE        15.8100   27.6670   60.9910 C.3   479  LYS479      0.1093
     86  NZ        15.0880   27.9690   62.2560 N.3   479  LYS479     -0.1314
     87  N         21.6080   38.5250   70.3140 N.3   505  THR505     -0.1218
     88  CA        22.0470   37.1310   70.2210 C.3   505  THR505      0.1862
     89  C         23.5300   36.9180   69.8630 C.2   505  THR505      0.2287
     90  O         24.0250   35.7950   69.9300 O.2   505  THR505     -0.2866
     91  CB        21.1710   36.3180   69.2300 C.3   505  THR505      0.1770
     92  OG1       21.3340   36.8380   67.9060 O.3   505  THR505     -0.2211
     93  CG2       19.7010   36.3780   69.6330 C.3   505  THR505      0.0375
     94  N         24.5020   37.1220   73.8160 N.3   508  LEU508     -0.1231
     95  CA        23.8900   36.1400   74.7200 C.3   508  LEU508      0.1693
     96  C         23.7350   34.7760   74.0530 C.2   508  LEU508      0.2593
     97  O         23.3560   34.6950   72.8790 O.2   508  LEU508     -0.2718
     98  CB        22.5110   36.6260   75.2150 C.3   508  LEU508      0.0284
     99  CG        22.4040   38.0010   75.9000 C.3   508  LEU508      0.0019
    100  CD1       20.9340   38.3950   76.1220 C.3   508  LEU508      0.0001
    101  CD2       23.1910   38.0770   77.2180 C.3   508  LEU508      0.0001
    102  N         24.0220   33.7130   74.8070 N.am  509  THR509     -0.1940
    103  CA        23.6850   32.3410   74.3860 C.3   509  THR509      0.2013
    104  C         22.1680   32.2070   74.4650 C.2   509  THR509      0.2484
    105  O         21.5420   32.9580   75.2240 O.2   509  THR509     -0.2729
    106  CB        24.3380   31.2540   75.2820 C.3   509  THR509      0.1807
    107  OG1       23.7580   31.2860   76.5900 O.3   509  THR509     -0.2208
    108  CG2       25.8830   31.4320   75.3870 C.3   509  THR509      0.0379
    109  N         21.5600   31.2810   73.6790 N.am  510  PRO510     -0.2726
    110  CA        20.0980   31.1720   73.7310 C.3   510  PRO510      0.1402
    111  C         19.5410   30.9280   75.1320 C.2   510  PRO510      0.2269
    112  O         18.4580   31.4000   75.4350 O.2   510  PRO510     -0.2865
    113  CB        19.7910   30.0050   72.7840 C.3   510  PRO510      0.0296
    114  CG        20.9190   30.0280   71.8030 C.3   510  PRO510      0.0237
    115  CD        22.1270   30.3420   72.6930 C.3   510  PRO510      0.0939
@<TRIPOS>BOND
     1    78    79    1
     2    80    81    2
     3    80    79    1
     4    74    73    2
     5    79    82    1
     6    73    72    1
     7    82    83    1
     8     6     5    1
     9     6     7    1
    10    76    75    1
    11    72    75    1
    12    72    71    1
    13     5     2    1
    14    83    84    1
    15     7     1    1
    16    75    77    1
    17    13    12    1
    18    84    85    1
    19    58    57    1
    20     2     1    1
    21     2     3    1
    22    59    57    1
    23    57    54    1
    24     4     3    2
    25     3     8   am
    26    85    86    1
    27    12     9    1
    28    60    61    1
    29     8     9    1
    30    62    63    2
    31    62    61    1
    32    54    55    1
    33    54    53    1
    34    55    56    2
    35     9    10    1
    36    61    64    1
    37    64    65    1
    38    10    14   am
    39    10    11    2
    40    31    30    1
    41    14    15    1
    42    65    66    1
    43    30    29    1
    44    66    67    1
    45    15    18    1
    46    15    16    1
    47    67    68    2
    48    29    28    1
    49    37    36    1
    50    69    68    1
    51    68    70    1
    52    16    19   am
    53    16    17    2
    54    19    20    1
    55    28    27    1
    56    36    33    1
    57    27    24    1
    58    20    21    1
    59    23    24    1
    60    23    21   am
    61    32    33    1
    62    32    25   am
    63    92    91    1
    64    24    25    1
    65    21    22    2
    66    33    34    1
    67    25    26    2
    68    43    42    1
    69    91    93    1
    70    91    88    1
    71    38    34   am
    72    38    39    1
    73    34    35    2
    74    89    90    2
    75    89    88    1
    76    42    39    1
    77    42    44    1
    78    88    87    1
    79    39    40    1
    80    52    50    1
    81    45    40   am
    82    45    46    1
    83    40    41    2
    84   114   115    1
    85   114   113    1
    86    50    49    1
    87    49    46    1
    88    49    51    1
    89   115   109    1
    90   113   110    1
    91    46    47    1
    92    97    96    2
    93    47    48    2
    94   109   110    1
    95   109   104   am
    96   110   111    1
    97    94    95    1
    98    96    95    1
    99    96   102   am
   100   103   104    1
   101   103   102    1
   102   103   106    1
   103   104   105    2
   104    95    98    1
   105   111   112    2
   106    98    99    1
   107   106   108    1
   108   106   107    1
   109    99   100    1
   110    99   101    1
