@<TRIPOS>MOLECULE
tmp/2gksB00.pdb
 184 179 0 0 0
SMALL
GASTEIGER

@<TRIPOS>ATOM
      1  N        -32.4190   48.4850   97.1480 N.3   167  PHE167     -0.1227
      2  CA       -31.0050   48.7800   97.0100 C.3   167  PHE167      0.1736
      3  C        -30.5570   48.7940   95.5460 C.2   167  PHE167      0.2595
      4  O        -30.6760   47.7910   94.8420 O.2   167  PHE167     -0.2718
      5  CB       -30.1790   47.7590   97.7780 C.3   167  PHE167      0.0547
      6  CG       -28.7120   48.0710   97.8240 C.ar  167  PHE167     -0.0202
      7  CD1      -28.2560   49.2740   98.3640 C.ar  167  PHE167     -0.0042
      8  CD2      -27.7860   47.1470   97.3730 C.ar  167  PHE167     -0.0042
      9  CE1      -26.8990   49.5570   98.4320 C.ar  167  PHE167     -0.0003
     10  CE2      -26.4240   47.4220   97.4300 C.ar  167  PHE167     -0.0003
     11  CZ       -25.9810   48.6310   97.9610 C.ar  167  PHE167     -0.0000
     12  N        -30.0450   49.9410   95.1070 N.am  168  GLN168     -0.1965
     13  CA       -29.3730   50.0710   93.8240 C.3   168  GLN168      0.1733
     14  C        -27.9100   49.7220   94.0040 C.2   168  GLN168      0.2617
     15  O        -27.3060   50.0690   95.0320 O.2   168  GLN168     -0.2715
     16  CB       -29.5070   51.5150   93.3220 C.3   168  GLN168      0.0408
     17  CG       -28.3660   52.0310   92.4120 C.3   168  GLN168      0.0908
     18  CD       -28.4220   51.4950   90.9860 C.2   168  GLN168      0.2608
     19  OE1      -29.4860   51.1420   90.4750 O.2   168  GLN168     -0.2717
     20  NE2      -27.2760   51.4600   90.3320 N.am  168  GLN168     -0.0878
     21  N        -27.3430   49.0260   93.0150 N.am  169  THR169     -0.1937
     22  CA       -25.8930   48.8560   92.9170 C.3   169  THR169      0.2028
     23  C        -25.4530   48.4800   91.5030 C.2   169  THR169      0.2642
     24  O        -26.2070   47.8570   90.7580 O.2   169  THR169     -0.2714
     25  CB       -25.3240   47.8410   93.9630 C.3   169  THR169      0.1808
     26  OG1      -23.8900   47.9190   93.9900 O.3   169  THR169     -0.2208
     27  CG2      -25.7420   46.4080   93.6550 C.3   169  THR169      0.0379
     28  N        -24.2200   48.8700   91.1680 N.am  170  ARG170     -0.1963
     29  CA       -23.5240   48.4490   89.9540 C.3   170  ARG170      0.1729
     30  C        -22.2020   47.7470   90.2870 C.2   170  ARG170      0.2616
     31  O        -21.3930   47.4820   89.3920 O.2   170  ARG170     -0.2715
     32  CB       -23.2330   49.6500   89.0430 C.3   170  ARG170      0.0348
     33  CG       -22.7380   50.8910   89.7650 C.3   170  ARG170      0.0492
     34  CD       -22.2430   51.9640   88.8080 C.3   170  ARG170      0.2205
     35  NE       -20.8020   51.8610   88.6100 N.pl3 170  ARG170     -0.0865
     36  CZ       -19.8810   52.2670   89.4880 C.cat 170  ARG170      0.5346
     37  NH1      -20.2390   52.8250   90.6390 N.pl3 170  ARG170      0.1354
     38  NH2      -18.5900   52.1120   89.2100 N.pl3 170  ARG170      0.1354
     39  N        -21.9940   47.4590   91.5680 N.am  171  ASN171     -0.1972
     40  CA       -20.7080   46.9870   92.0690 C.3   171  ASN171      0.1688
     41  C        -20.8260   45.6570   92.8080 C.2   171  ASN171      0.2292
     42  O        -21.9100   45.2940   93.2440 O.2   171  ASN171     -0.2864
     43  CB       -20.0960   48.0350   93.0040 C.3   171  ASN171      0.1181
     44  CG       -19.2280   49.0380   92.2770 C.2   171  ASN171      0.2629
     45  OD1      -18.3630   48.6670   91.4800 O.2   171  ASN171     -0.2716
     46  ND2      -19.4400   50.3250   92.5620 N.am  171  ASN171     -0.0877
     47  N        -19.7910   46.0270  103.8460 N.3   176  VAL176     -0.1231
     48  CA       -20.3000   47.3690  104.0980 C.3   176  VAL176      0.1692
     49  C        -21.6810   47.5270  103.4560 C.2   176  VAL176      0.2592
     50  O        -22.5840   48.0480  104.0940 O.2   176  VAL176     -0.2718
     51  CB       -19.2850   48.4920  103.6800 C.3   176  VAL176      0.0266
     52  CG1      -18.9740   48.4690  102.1610 C.3   176  VAL176      0.0020
     53  CG2      -19.7650   49.8650  104.1420 C.3   176  VAL176      0.0020
     54  N        -21.8420   47.0440  102.2200 N.am  177  HIS177     -0.1976
     55  CA       -23.1310   47.0600  101.5100 C.3   177  HIS177      0.1656
     56  C        -24.1710   46.1340  102.1390 C.2   177  HIS177      0.2291
     57  O        -25.3570   46.4530  102.1800 O.2   177  HIS177     -0.2864
     58  CB       -22.9270   46.7150  100.0320 C.3   177  HIS177      0.0771
     59  CG       -21.8180   47.4920   99.3970 C.ar  177  HIS177      0.0820
     60  ND1      -20.5730   46.9500   99.1550 N.ar  177  HIS177     -0.2267
     61  CD2      -21.7400   48.7940   99.0330 C.ar  177  HIS177      0.1154
     62  CE1      -19.7840   47.8770   98.6420 C.ar  177  HIS177      0.1986
     63  NE2      -20.4690   49.0050   98.5570 N.ar  177  HIS177     -0.2212
     64  N        -25.1310   48.0970  105.3630 N.3   180  LEU180     -0.1245
     65  CA       -25.9370   49.1780  104.7960 C.3   180  LEU180      0.1561
     66  C        -27.4080   48.8000  104.5780 C.2   180  LEU180      0.2260
     67  O        -28.3110   49.4830  105.0700 O.2   180  LEU180     -0.2867
     68  CB       -25.3060   49.5970  103.4630 C.3   180  LEU180      0.0270
     69  CG       -25.5850   50.9230  102.7660 C.3   180  LEU180      0.0019
     70  CD1      -25.1580   52.0990  103.6300 C.3   180  LEU180      0.0001
     71  CD2      -24.8190   50.9160  101.4480 C.3   180  LEU180      0.0001
     72  N        -27.6830   52.5600   82.7610 N.3   237  MET237     -0.1245
     73  CA       -27.3920   53.7100   83.5690 C.3   237  MET237      0.1570
     74  C        -26.9060   54.8780   82.7180 C.2   237  MET237      0.2261
     75  O        -26.2790   54.7020   81.6720 O.2   237  MET237     -0.2867
     76  CB       -26.3870   53.3440   84.6640 C.3   237  MET237      0.0387
     77  CG       -27.0170   52.4730   85.7590 C.3   237  MET237      0.0595
     78  SD       -25.9280   52.0750   87.1310 S.3   237  MET237     -0.1393
     79  CE       -25.9000   53.6530   88.0200 C.3   237  MET237      0.0692
     80  N        -25.3270   57.3350   84.5940 N.3   239  MET239     -0.1245
     81  CA       -24.3240   57.8780   85.5370 C.3   239  MET239      0.1570
     82  C        -24.5230   59.3850   85.7370 C.2   239  MET239      0.2261
     83  O        -23.5590   60.1640   85.7170 O.2   239  MET239     -0.2867
     84  CB       -22.8780   57.5780   85.1010 C.3   239  MET239      0.0387
     85  CG       -22.5590   56.1120   84.8120 C.3   239  MET239      0.0595
     86  SD       -22.8670   54.9960   86.1830 S.3   239  MET239     -0.1393
     87  CE       -21.5720   55.5030   87.3270 C.3   239  MET239      0.0692
     88  N        -32.8210   53.2590   99.0680 N.3   261  ILE261     -0.1245
     89  CA       -31.5360   53.5930   99.6770 C.3   261  ILE261      0.1561
     90  C        -30.7490   54.5260   98.7620 C.2   261  ILE261      0.2260
     91  O        -30.6170   54.2830   97.5590 O.2   261  ILE261     -0.2867
     92  CB       -30.6930   52.3100  100.0090 C.3   261  ILE261      0.0252
     93  CG1      -31.2840   51.5770  101.2230 C.3   261  ILE261      0.0019
     94  CG2      -29.1910   52.6440  100.2350 C.3   261  ILE261      0.0019
     95  CD1      -31.0440   50.0860  101.2280 C.3   261  ILE261      0.0001
     96  N        -26.9440   56.3980   99.2090 N.3   263  GLY263     -0.1210
     97  CA       -25.7720   56.6130  100.0470 C.3   263  GLY263      0.1956
     98  C        -24.9230   57.7580   99.5310 C.2   263  GLY263      0.2612
     99  O        -25.4230   58.7040   98.9070 O.2   263  GLY263     -0.2717
    100  N        -23.6270   57.6540   99.7970 N.am  264  ARG264     -0.1965
    101  CA       -22.6260   58.5730   99.2840 C.3   264  ARG264      0.1729
    102  C        -22.4600   58.3850   97.7610 C.2   264  ARG264      0.2616
    103  O        -22.5300   57.2620   97.2600 O.2   264  ARG264     -0.2715
    104  CB       -21.3230   58.2590  100.0060 C.3   264  ARG264      0.0348
    105  CG       -20.1490   59.1890   99.7610 C.3   264  ARG264      0.0492
    106  CD       -18.8880   58.3370   99.7610 C.3   264  ARG264      0.2205
    107  NE       -19.0530   57.2370   98.8060 N.pl3 264  ARG264     -0.0865
    108  CZ       -18.3850   56.0850   98.8240 C.cat 264  ARG264      0.5346
    109  NH1      -17.4710   55.8400   99.7660 N.pl3 264  ARG264      0.1354
    110  NH2      -18.6420   55.1730   97.8830 N.pl3 264  ARG264      0.1354
    111  N        -22.2520   59.4940   97.0470 N.am  265  ASP265     -0.1957
    112  CA       -21.8630   59.4980   95.6190 C.3   265  ASP265      0.1840
    113  C        -22.7440   58.6390   94.7030 C.2   265  ASP265      0.2622
    114  O        -22.2390   58.0010   93.7760 O.2   265  ASP265     -0.2715
    115  CB       -20.3830   59.1020   95.4420 C.3   265  ASP265      0.1450
    116  CG       -19.4140   60.0860   96.1030 C.2   265  ASP265      0.3671
    117  OD1      -18.5160   59.6210   96.8310 O.co2 265  ASP265     -0.2456
    118  OD2      -19.5280   61.3120   95.8910 O.co2 265  ASP265     -0.2456
    119  N        -24.0530   58.6510   94.9660 N.am  266  HIS266     -0.1959
    120  CA       -25.0350   57.8230   94.2740 C.3   266  HIS266      0.1787
    121  C        -25.0760   58.1090   92.7610 C.2   266  HIS266      0.2620
    122  O        -25.2250   59.2620   92.3480 O.2   266  HIS266     -0.2715
    123  CB       -26.4260   58.0310   94.8950 C.3   266  HIS266      0.0785
    124  CG       -27.4540   57.0510   94.4170 C.ar  266  HIS266      0.0821
    125  ND1      -27.7850   55.9140   95.1250 N.ar  266  HIS266     -0.2267
    126  CD2      -28.2060   57.0240   93.2870 C.ar  266  HIS266      0.1154
    127  CE1      -28.7040   55.2360   94.4580 C.ar  266  HIS266      0.1986
    128  NE2      -28.9800   55.8900   93.3440 N.ar  266  HIS266     -0.2212
    129  N        -24.9340   57.0450   91.9650 N.am  267  ALA267     -0.1963
    130  CA       -24.9920   57.0770   90.4750 C.3   267  ALA267      0.1728
    131  C        -23.9760   58.0070   89.7990 C.2   267  ALA267      0.2616
    132  O        -24.2230   58.5240   88.7050 O.2   267  ALA267     -0.2715
    133  CB       -26.4200   57.3780   89.9890 C.3   267  ALA267      0.0334
    134  N        -22.8350   58.2020   90.4550 N.am  268  SER268     -0.1950
    135  CA       -21.8060   59.1230   89.9990 C.3   268  SER268      0.1924
    136  C        -20.6480   58.3930   89.3060 C.2   268  SER268      0.2314
    137  O        -20.2330   57.3250   89.7600 O.2   268  SER268     -0.2863
    138  CB       -21.2810   59.9390   91.1830 C.3   268  SER268      0.2116
    139  OG       -20.1690   60.7290   90.8020 O.3   268  SER268     -0.2180
    140  N        -27.8950   57.3630  103.7800 N.3   302  PHE302     -0.1227
    141  CA       -26.7380   56.9920  104.5820 C.3   302  PHE302      0.1736
    142  C        -25.5840   57.9290  104.2960 C.2   302  PHE302      0.2595
    143  O        -25.3410   58.3130  103.1460 O.2   302  PHE302     -0.2718
    144  CB       -26.3110   55.5390  104.3260 C.3   302  PHE302      0.0547
    145  CG       -27.2820   54.5200  104.8550 C.ar  302  PHE302     -0.0202
    146  CD1      -28.2220   53.9270  104.0080 C.ar  302  PHE302     -0.0042
    147  CD2      -27.2670   54.1560  106.2080 C.ar  302  PHE302     -0.0042
    148  CE1      -29.1330   52.9810  104.4910 C.ar  302  PHE302     -0.0003
    149  CE2      -28.1760   53.2140  106.7090 C.ar  302  PHE302     -0.0003
    150  CZ       -29.1140   52.6230  105.8420 C.ar  302  PHE302     -0.0000
    151  N        -24.8920   58.3150  105.3610 N.am  303  GLU303     -0.1965
    152  CA       -23.5830   58.9150  105.2230 C.3   303  GLU303      0.1733
    153  C        -22.6130   57.7550  105.0030 C.2   303  GLU303      0.2616
    154  O        -22.9540   56.5910  105.2590 O.2   303  GLU303     -0.2715
    155  CB       -23.2170   59.7490  106.4600 C.3   303  GLU303      0.0429
    156  CG       -22.2030   60.8540  106.1560 C.3   303  GLU303      0.1163
    157  CD       -22.0670   61.8850  107.2580 C.2   303  GLU303      0.3649
    158  OE1      -22.2960   63.0850  106.9690 O.co2 303  GLU303     -0.2457
    159  OE2      -21.7230   61.5080  108.4040 O.co2 303  GLU303     -0.2457
    160  N        -21.4260   58.0730  104.4950 N.am  304  GLU304     -0.1963
    161  CA       -20.3890   57.0840  104.2170 C.3   304  GLU304      0.1733
    162  C        -20.0940   56.2170  105.4540 C.2   304  GLU304      0.2616
    163  O        -19.6730   56.7260  106.5060 O.2   304  GLU304     -0.2715
    164  CB       -19.1350   57.8050  103.7100 C.3   304  GLU304      0.0429
    165  CG       -17.8550   56.9890  103.6410 C.3   304  GLU304      0.1163
    166  CD       -16.6260   57.8680  103.8100 C.2   304  GLU304      0.3649
    167  OE1      -16.6140   58.9950  103.2630 O.co2 304  GLU304     -0.2457
    168  OE2      -15.6760   57.4400  104.5020 O.co2 304  GLU304     -0.2457
    169  N        -20.3570   54.9140  105.3260 N.am  305  LEU305     -0.1977
    170  CA       -20.0720   53.9680  106.4040 C.3   305  LEU305      0.1596
    171  C        -18.6190   53.5200  106.3200 C.2   305  LEU305      0.2287
    172  O        -18.0950   53.2910  105.2230 O.2   305  LEU305     -0.2864
    173  CB       -20.9910   52.7420  106.3470 C.3   305  LEU305      0.0297
    174  CG       -22.4940   52.8060  106.6390 C.3   305  LEU305      0.0022
    175  CD1      -23.1040   51.4340  106.4070 C.3   305  LEU305      0.0001
    176  CD2      -22.7850   53.2520  108.0450 C.3   305  LEU305      0.0001
    177  N        -10.1000   52.1710   96.8590 N.3   320  ILE320     -0.1245
    178  CA       -10.1030   51.3240   98.0450 C.3   320  ILE320      0.1561
    179  C         -9.4020   49.9880   97.7830 C.2   320  ILE320      0.2260
    180  O         -8.1970   49.8620   98.0180 O.2   320  ILE320     -0.2867
    181  CB       -11.5360   51.1060   98.5530 C.3   320  ILE320      0.0252
    182  CG1      -12.3020   52.4160   98.7010 C.3   320  ILE320      0.0019
    183  CG2      -11.4530   50.3070   99.8730 C.3   320  ILE320      0.0019
    184  CD1      -13.6910   52.3190   99.2100 C.3   320  ILE320      0.0001
@<TRIPOS>BOND
     1    75    74    2
     2    74    73    1
     3    72    73    1
     4    73    76    1
     5    80    81    1
     6    76    77    1
     7    85    84    1
     8    85    86    1
     9    84    81    1
    10    81    82    1
    11    83    82    2
    12    77    78    1
    13    86    87    1
    14    78    79    1
    15    35    34    1
    16    35    36    2
    17   132   131    2
    18    34    33    1
    19    32    33    1
    20    32    29    1
    21    38    36    1
    22   136   137    2
    23   136   135    1
    24    31    30    2
    25    36    37    1
    26   131   134   am
    27   131   130    1
    28    29    30    1
    29    29    28    1
    30   133   130    1
    31   135   134    1
    32   135   138    1
    33    30    39   am
    34    20    18   am
    35    19    18    2
    36   130   129    1
    37    24    23    2
    38   139   138    1
    39    18    17    1
    40    28    23   am
    41    45    44    2
    42    23    22    1
    43    39    40    1
    44   129   121   am
    45    40    41    1
    46    40    43    1
    47    44    46   am
    48    44    43    1
    49   122   121    2
    50    17    16    1
    51   121   120    1
    52    41    42    2
    53    22    21    1
    54    22    25    1
    55    21    14   am
    56   126   128   ar
    57   126   124   ar
    58    16    13    1
    59   128   127   ar
    60    27    25    1
    61   114   113    2
    62    13    14    1
    63    13    12    1
    64    25    26    1
    65    14    15    2
    66   120   123    1
    67   120   119    1
    68   124   123    1
    69   124   125   ar
    70   127   125   ar
    71   113   119   am
    72   113   112    1
    73     4     3    2
    74    12     3   am
    75   115   112    1
    76   115   116    1
    77     3     2    1
    78   112   111    1
    79   118   116   ar
    80   116   117   ar
    81   177   178    1
    82     2     1    1
    83     2     5    1
    84   111   102   am
    85   103   102    2
    86     8    10   ar
    87     8     6   ar
    88    10    11   ar
    89    91    90    2
    90   102   101    1
    91     5     6    1
    92   179   180    2
    93   179   178    1
    94     6     7   ar
    95   110   108    1
    96    11     9   ar
    97   178   181    1
    98     7     9   ar
    99   181   182    1
   100   181   183    1
   101    63    62   ar
   102    63    61   ar
   103    62    60   ar
   104   182   184    1
   105    90    89    1
   106   107   108    2
   107   107   106    1
   108   108   109    1
   109    99    98    2
   110    61    59   ar
   111    88    89    1
   112    60    59   ar
   113    96    97    1
   114   101   100    1
   115   101   104    1
   116    59    58    1
   117    98   100   am
   118    98    97    1
   119    89    92    1
   120   106   105    1
   121   105   104    1
   122    92    94    1
   123    92    93    1
   124    58    55    1
   125    93    95    1
   126    71    69    1
   127    55    56    1
   128    55    54    1
   129    56    57    2
   130    52    51    1
   131    54    49   am
   132    69    68    1
   133    69    70    1
   134   143   142    2
   135   167   166   ar
   136    49    50    2
   137    49    48    1
   138    68    65    1
   139   165   164    1
   140   165   166    1
   141    51    48    1
   142    51    53    1
   143   164   161    1
   144   140   141    1
   145   166   168   ar
   146    47    48    1
   147   146   148   ar
   148   146   145   ar
   149   161   160    1
   150   161   162    1
   151   142   141    1
   152   142   151   am
   153   144   141    1
   154   144   145    1
   155   148   150   ar
   156   160   153   am
   157    66    65    1
   158    66    67    2
   159    65    64    1
   160   145   147   ar
   161   153   152    1
   162   153   154    2
   163   152   151    1
   164   152   155    1
   165   172   171    2
   166   169   162   am
   167   169   170    1
   168   162   163    2
   169   150   149   ar
   170   156   155    1
   171   156   157    1
   172   147   149   ar
   173   171   170    1
   174   173   170    1
   175   173   174    1
   176   175   174    1
   177   174   176    1
   178   158   157   ar
   179   157   159   ar
