@<TRIPOS>MOLECULE
tmp/2gl0B00.pdb
 92 91 0 0 0
SMALL
GASTEIGER

@<TRIPOS>ATOM
      1  N         13.3690   22.2260    3.0530 N.3    16  ASN16      -0.1240
      2  CA        13.9670   20.9350    3.3180 C.3    16  ASN16       0.1653
      3  C         13.8420   20.1480    2.0300 C.2    16  ASN16       0.2266
      4  O         12.9590   20.4840    1.2300 O.2    16  ASN16      -0.2867
      5  CB        13.1410   20.2830    4.3780 C.3    16  ASN16       0.1155
      6  CG        13.5530   20.6690    5.7770 C.2    16  ASN16       0.2627
      7  OD1       14.4560   20.0480    6.3550 O.2    16  ASN16      -0.2716
      8  ND2       12.8190   21.6190    6.3780 N.am   16  ASN16      -0.0877
      9  N          7.7250   20.8900    7.6610 N.3    91  TRP91      -0.1228
     10  CA         8.9180   20.1570    8.0490 C.3    91  TRP91       0.1722
     11  C          8.7690   18.7410    7.4480 C.2    91  TRP91       0.2437
     12  O          7.6170   18.2770    7.1840 O.2    91  TRP91      -0.2733
     13  CB         8.9910   20.1420    9.5580 C.3    91  TRP91       0.0563
     14  CG         9.2070   21.4480   10.2060 C.ar   91  TRP91       0.0003
     15  CD1        8.3330   22.1120   11.0310 C.ar   91  TRP91       0.0946
     16  CD2       10.4170   22.2610   10.1780 C.ar   91  TRP91       0.0152
     17  NE1        8.9070   23.2900   11.4810 N.ar   91  TRP91      -0.2442
     18  CE2       10.1850   23.3870   10.9880 C.ar   91  TRP91       0.0810
     19  CE3       11.6530   22.1460    9.5260 C.ar   91  TRP91       0.0012
     20  CZ2       11.1210   24.4140   11.1140 C.ar   91  TRP91       0.0191
     21  CZ3       12.5970   23.1390    9.6870 C.ar   91  TRP91       0.0001
     22  CH2       12.3350   24.2500   10.4760 C.ar   91  TRP91       0.0015
     23  N          9.8910   18.0600    7.1280 N.am   92  PRO92      -0.2718
     24  CA         9.7190   16.6620    6.7740 C.3    92  PRO92       0.1535
     25  C          8.7910   15.8470    7.7400 C.2    92  PRO92       0.2598
     26  O          8.0340   14.9900    7.3020 O.2    92  PRO92      -0.2715
     27  CB        11.1840   16.1300    6.7750 C.3    92  PRO92       0.0310
     28  CG        11.9520   17.3610    6.3340 C.3    92  PRO92       0.0237
     29  CD        11.2680   18.5220    6.9190 C.3    92  PRO92       0.0939
     30  N          8.8210   16.1290    9.0300 N.am   93  ILE93      -0.1978
     31  CA         7.9620   15.4020    9.9080 C.3    93  ILE93       0.1596
     32  C          6.4480   15.5320    9.6090 C.2    93  ILE93       0.2287
     33  O          5.6400   14.6190    9.9420 O.2    93  ILE93      -0.2864
     34  CB         8.3120   15.6200   11.3920 C.3    93  ILE93       0.0276
     35  CG1        8.2920   17.1000   11.8150 C.3    93  ILE93       0.0022
     36  CG2        9.6250   14.9560   11.7680 C.3    93  ILE93       0.0022
     37  CD1        8.2160   17.1790   13.3560 C.3    93  ILE93       0.0001
     38  N         15.6570   12.9440    4.2950 N.3   111  ALA111     -0.1231
     39  CA        14.7770   14.0880    4.6010 C.3   111  ALA111      0.1694
     40  C         15.6100   15.0010    5.5140 C.2   111  ALA111      0.2593
     41  O         15.9920   14.6030    6.6190 O.2   111  ALA111     -0.2718
     42  CB        13.5730   13.6560    5.3020 C.3   111  ALA111      0.0304
     43  N         15.9160   16.2190    5.0640 N.am  112  THR112     -0.1939
     44  CA        16.9870   17.0010    5.6810 C.3   112  THR112      0.2028
     45  C         17.0520   18.4240    5.1250 C.2   112  THR112      0.2642
     46  O         16.6010   18.6410    3.9890 O.2   112  THR112     -0.2714
     47  CB        18.3820   16.3020    5.4860 C.3   112  THR112      0.1808
     48  OG1       19.3620   16.9210    6.3280 O.3   112  THR112     -0.2208
     49  CG2       18.8430   16.2540    3.9750 C.3   112  THR112      0.0379
     50  N         17.5920   19.3560    5.9410 N.am  113  ALA113     -0.1963
     51  CA        18.0080   20.7170    5.5240 C.3   113  ALA113      0.1728
     52  C         19.5330   20.8560    5.5910 C.2   113  ALA113      0.2616
     53  O         20.1070   21.8090    5.0500 O.2   113  ALA113     -0.2715
     54  CB        17.3320   21.8130    6.4230 C.3   113  ALA113      0.0334
     55  N         20.2000   19.9120    6.2680 N.am  114  ASN114     -0.1972
     56  CA        21.6620   19.9420    6.4560 C.3   114  ASN114      0.1688
     57  C         22.3550   19.9440    5.0970 C.2   114  ASN114      0.2292
     58  O         21.7250   19.5630    4.0990 O.2   114  ASN114     -0.2864
     59  CB        22.1490   18.6880    7.1690 C.3   114  ASN114      0.1181
     60  CG        21.6850   18.5760    8.5840 C.2   114  ASN114      0.2629
     61  OD1       21.3640   19.5670    9.2590 O.2   114  ASN114     -0.2716
     62  ND2       21.6860   17.3410    9.0770 N.am  114  ASN114     -0.0877
     63  N         14.6070   22.5290   24.5980 N.3   154  PHE154     -0.1241
     64  CA        14.3570   22.8730   23.1810 C.3   154  PHE154      0.1605
     65  C         13.0550   22.2300   22.6580 C.2   154  PHE154      0.2264
     66  O         12.3060   22.8700   21.9260 O.2   154  PHE154     -0.2867
     67  CB        15.5820   22.5360   22.2430 C.3   154  PHE154      0.0534
     68  CG        15.3080   22.8270   20.7520 C.ar  154  PHE154     -0.0203
     69  CD1       15.2670   24.1340   20.2710 C.ar  154  PHE154     -0.0042
     70  CD2       15.0240   21.7900   19.8530 C.ar  154  PHE154     -0.0042
     71  CE1       14.9910   24.4070   18.9440 C.ar  154  PHE154     -0.0003
     72  CE2       14.7500   22.0510   18.5430 C.ar  154  PHE154     -0.0003
     73  CZ        14.7070   23.3660   18.0800 C.ar  154  PHE154     -0.0000
     74  N         10.0250   24.5040   20.7060 N.3   159  VAL159     -0.1245
     75  CA         9.2900   23.8930   19.5950 C.3   159  VAL159      0.1561
     76  C          7.9510   23.3190   20.0090 C.2   159  VAL159      0.2260
     77  O          7.0050   23.2980   19.2290 O.2   159  VAL159     -0.2867
     78  CB        10.1710   22.8540   18.7260 C.3   159  VAL159      0.0252
     79  CG1       11.3740   23.5540   18.1370 C.3   159  VAL159      0.0019
     80  CG2       10.6650   21.6200   19.4930 C.3   159  VAL159      0.0019
     81  N          6.9670   20.3490   20.9230 N.3   161  TYR161     -0.1241
     82  CA         6.6380   19.0560   20.3700 C.3   161  TYR161      0.1605
     83  C          6.4900   17.9910   21.4580 C.2   161  TYR161      0.2264
     84  O          5.8350   16.9190   21.2160 O.2   161  TYR161     -0.2867
     85  CB         7.7260   18.6710   19.3840 C.3   161  TYR161      0.0534
     86  CG         7.7690   19.4460   18.0860 C.ar  161  TYR161     -0.0201
     87  CD1        6.6220   19.9970   17.5100 C.ar  161  TYR161     -0.0009
     88  CD2        8.9620   19.5820   17.4250 C.ar  161  TYR161     -0.0009
     89  CE1        6.7100   20.6580   16.2680 C.ar  161  TYR161      0.0417
     90  CE2        9.0640   20.2290   16.2330 C.ar  161  TYR161      0.0417
     91  CZ         7.9370   20.7180   15.6420 C.ar  161  TYR161      0.1957
     92  OH         8.1120   21.3290   14.4460 O.3   161  TYR161     -0.2866
@<TRIPOS>BOND
     1     4     3    2
     2     3     2    1
     3     1     2    1
     4     2     5    1
     5    49    47    1
     6    46    45    2
     7    58    57    2
     8    38    39    1
     9     5     6    1
    10    39    42    1
    11    39    40    1
    12    53    52    2
    13    43    40   am
    14    43    44    1
    15    57    56    1
    16    45    44    1
    17    45    50   am
    18    47    44    1
    19    47    48    1
    20    40    41    2
    21    51    52    1
    22    51    50    1
    23    51    54    1
    24    52    55   am
    25     6     7    2
    26     6     8   am
    27    55    56    1
    28    28    27    1
    29    28    29    1
    30    56    59    1
    31    24    27    1
    32    24    23    1
    33    24    25    1
    34    29    23    1
    35    23    11   am
    36    59    60    1
    37    12    11    2
    38    26    25    2
    39    11    10    1
    40     9    10    1
    41    25    30   am
    42    10    13    1
    43    60    62   am
    44    60    61    2
    45    30    31    1
    46    19    21   ar
    47    19    16   ar
    48    13    14    1
    49    32    31    1
    50    32    33    2
    51    21    22   ar
    52    31    34    1
    53    16    14   ar
    54    16    18   ar
    55    14    15   ar
    56    22    20   ar
    57    18    20   ar
    58    18    17   ar
    59    15    17   ar
    60    34    36    1
    61    34    35    1
    62    35    37    1
    63    92    91    1
    64    91    90   ar
    65    91    89   ar
    66    90    88   ar
    67    89    87   ar
    68    88    86   ar
    69    87    86   ar
    70    73    72   ar
    71    73    71   ar
    72    86    85    1
    73    79    78    1
    74    72    70   ar
    75    78    80    1
    76    78    75    1
    77    71    69   ar
    78    77    76    2
    79    85    82    1
    80    75    76    1
    81    75    74    1
    82    70    68   ar
    83    69    68   ar
    84    82    81    1
    85    82    83    1
    86    68    67    1
    87    84    83    2
    88    66    65    2
    89    67    64    1
    90    65    64    1
    91    64    63    1
