@<TRIPOS>MOLECULE
tmp/2gl9D01.pdb
 74 67 0 0 0
SMALL
GASTEIGER

@<TRIPOS>ATOM
      1  N         19.0470   26.6460   56.9070 N.3     1  CYS1       -0.1235
      2  CA        18.1300   26.2800   55.7920 C.3     1  CYS1        0.1677
      3  C         17.3930   24.9960   56.1840 C.2     1  CYS1        0.2270
      4  O         18.0240   23.9910   56.5340 O.2     1  CYS1       -0.2867
      5  CB        18.9420   26.0550   54.5110 C.3     1  CYS1        0.0956
      6  SG        19.7530   24.4580   54.4790 S.3     1  CYS1       -0.0801
      7  N         15.0380   29.1090   53.0860 N.3    19  THR19      -0.1218
      8  CA        16.3620   29.4640   53.5860 C.3    19  THR19       0.1862
      9  C         16.7290   30.9310   53.3690 C.2    19  THR19       0.2287
     10  O         16.1230   31.6260   52.5610 O.2    19  THR19      -0.2866
     11  CB        17.4650   28.5920   52.8510 C.3    19  THR19       0.1770
     12  OG1       18.7630   28.8230   53.4220 O.3    19  THR19      -0.2211
     13  CG2       17.5520   28.9690   51.3660 C.3    19  THR19       0.0375
     14  N         19.8250   31.2830   52.6970 N.3    21  GLY21      -0.1210
     15  CA        20.9620   30.9900   51.8400 C.3    21  GLY21       0.1956
     16  C         22.3360   31.0310   52.4900 C.2    21  GLY21       0.2611
     17  O         22.4530   31.2240   53.6830 O.2    21  GLY21      -0.2717
     18  N         23.3650   30.8120   51.6800 N.am   22  MET22      -0.1979
     19  CA        24.7550   30.8160   52.1300 C.3    22  MET22       0.1605
     20  C         25.1270   32.2130   52.6410 C.2    22  MET22       0.2287
     21  O         25.0200   33.2000   51.9200 O.2    22  MET22      -0.2864
     22  CB        25.6960   30.4530   50.9680 C.3    22  MET22       0.0413
     23  CG        27.1760   30.4940   51.3310 C.3    22  MET22       0.0598
     24  SD        28.3150   30.7250   49.8900 S.3    22  MET22      -0.1393
     25  CE        27.6910   29.3750   48.8360 C.3    22  MET22       0.0692
     26  N         22.6790   35.7330   44.6100 N.3    29  ARG29      -0.1245
     27  CA        22.9890   34.3010   44.5470 C.3    29  ARG29       0.1563
     28  C         21.8060   33.4660   44.9750 C.2    29  ARG29       0.2260
     29  O         21.1290   33.7740   45.9690 O.2    29  ARG29      -0.2867
     30  CB        24.2060   33.9540   45.4030 C.3    29  ARG29       0.0307
     31  CG        24.5440   32.4390   45.4880 C.3    29  ARG29       0.0489
     32  CD        23.7120   31.7640   46.5770 C.3    29  ARG29       0.2205
     33  NE        24.1530   30.3920   46.8430 N.pl3  29  ARG29      -0.0865
     34  CZ        23.5700   29.5940   47.7390 C.cat  29  ARG29       0.5346
     35  NH1       22.5180   30.0270   48.4490 N.pl3  29  ARG29       0.1354
     36  NH2       24.0460   28.3710   47.9420 N.pl3  29  ARG29       0.1354
     37  N         20.5660   29.4270   45.7430 N.3    31  GLY31      -0.1210
     38  CA        20.9690   28.0420   45.9350 C.3    31  GLY31       0.1956
     39  C         19.8930   27.0530   45.4560 C.2    31  GLY31       0.2612
     40  O         19.0600   27.3860   44.6180 O.2    31  GLY31      -0.2717
     41  N         19.8940   25.8410   46.0200 N.am   32  ASP32      -0.1959
     42  CA        18.9410   24.8110   45.6200 C.3    32  ASP32       0.1840
     43  C         17.5720   24.9060   46.2800 C.2    32  ASP32       0.2622
     44  O         16.5950   24.3670   45.7640 O.2    32  ASP32      -0.2715
     45  CB        19.5230   23.4440   45.9650 C.3    32  ASP32       0.1450
     46  CG        19.7150   23.2830   47.4760 C.2    32  ASP32       0.3671
     47  OD1       20.1210   24.2710   48.1320 O.co2  32  ASP32      -0.2456
     48  OD2       19.4470   22.1850   48.0300 O.co2  32  ASP32      -0.2456
     49  N         17.4920   25.5820   47.4200 N.am   33  SER33      -0.1950
     50  CA        16.2400   25.6150   48.1670 C.3    33  SER33       0.1924
     51  C         14.9550   26.0340   47.4590 C.2    33  SER33       0.2314
     52  O         13.8840   25.6160   47.8690 O.2    33  SER33      -0.2863
     53  CB        16.4170   26.4230   49.4470 C.3    33  SER33       0.2116
     54  OG        17.5440   25.9320   50.1630 O.3    33  SER33      -0.2180
     55  N         16.7720   18.3030   50.1260 N.3    51  ALA51      -0.1231
     56  CA        18.2180   18.3390   50.3060 C.3    51  ALA51       0.1694
     57  C         18.6720   19.5960   51.0440 C.2    51  ALA51       0.2593
     58  O         17.9690   20.6200   51.0760 O.2    51  ALA51      -0.2718
     59  CB        18.9240   18.2730   48.9260 C.3    51  ALA51       0.0304
     60  N         19.8680   19.5210   51.6210 N.am   52  THR52      -0.1939
     61  CA        20.4050   20.6610   52.3510 C.3    52  THR52       0.2028
     62  C         21.9150   20.5970   52.2200 C.2    52  THR52       0.2642
     63  O         22.4700   19.5660   51.8120 O.2    52  THR52      -0.2714
     64  CB        19.9750   20.6030   53.8470 C.3    52  THR52       0.1808
     65  OG1       20.2010   21.8790   54.4780 O.3    52  THR52      -0.2208
     66  CG2       20.7530   19.5060   54.5780 C.3    52  THR52       0.0379
     67  N         22.5790   21.7010   52.5530 N.am   53  GLY53      -0.1954
     68  CA        24.0300   21.7420   52.4610 C.3    53  GLY53       0.1869
     69  C         24.4740   22.7490   51.4150 C.2    53  GLY53       0.2309
     70  O         23.8340   23.7980   51.2670 O.2    53  GLY53      -0.2863
     71  N         24.2490   24.2700   48.3720 N.3    55  GLY55      -0.1225
     72  CA        23.2400   24.3350   47.3210 C.3    55  GLY55       0.1811
     73  C         23.7230   24.1810   45.8930 C.2    55  GLY55       0.2280
     74  O         23.0380   23.5730   45.0830 O.2    55  GLY55      -0.2866
@<TRIPOS>BOND
     1    27    26    1
     2    27    28    1
     3    27    30    1
     4    40    39    2
     5    28    29    2
     6    74    73    2
     7    30    31    1
     8    39    38    1
     9    39    41   am
    10    31    32    1
    11    42    45    1
    12    42    41    1
    13    42    43    1
    14    37    38    1
    15    44    43    2
    16    73    72    1
    17    45    46    1
    18    43    49   am
    19    32    33    1
    20    33    34    2
    21    72    71    1
    22    49    50    1
    23    51    52    2
    24    51    50    1
    25    46    48   ar
    26    46    47   ar
    27    34    36    1
    28    34    35    1
    29    50    53    1
    30    25    24    1
    31    59    56    1
    32    53    54    1
    33    24    23    1
    34    55    56    1
    35    56    57    1
    36    22    23    1
    37    22    19    1
    38    57    58    2
    39    57    60   am
    40    70    69    2
    41    13    11    1
    42    69    68    1
    43    60    61    1
    44    18    19    1
    45    18    16   am
    46    63    62    2
    47    15    16    1
    48    15    14    1
    49    21    20    2
    50    19    20    1
    51    62    61    1
    52    62    67   am
    53    61    64    1
    54    68    67    1
    55    16    17    2
    56    10     9    2
    57    11    12    1
    58    11     8    1
    59     7     8    1
    60     9     8    1
    61    64    65    1
    62    64    66    1
    63     6     5    1
    64     5     2    1
    65     2     3    1
    66     2     1    1
    67     3     4    2
