@<TRIPOS>MOLECULE
tmp/2glmB00.pdb
 97 96 0 0 0
SMALL
GASTEIGER

@<TRIPOS>ATOM
      1  N        -79.5220   66.9160  192.8420 N.3    14  PRO14      -0.2102
      2  CA       -79.1080   66.9670  194.2460 C.3    14  PRO14       0.1504
      3  C        -78.8310   65.5530  194.7760 C.2    14  PRO14       0.2575
      4  O        -78.2040   65.3770  195.8230 O.2    14  PRO14      -0.2718
      5  CB       -80.3080   67.6140  194.9260 C.3    14  PRO14       0.0282
      6  CG       -81.4430   67.0220  194.1640 C.3    14  PRO14       0.0208
      7  CD       -80.9730   67.1480  192.7200 C.3    14  PRO14       0.0893
      8  N        -79.2970   64.5530  194.0320 N.am   15  HIS15      -0.1976
      9  CA       -79.1120   63.1600  194.4150 C.3    15  HIS15       0.1656
     10  C        -77.6420   62.7970  194.5680 C.2    15  HIS15       0.2291
     11  O        -76.8000   63.2000  193.7590 O.2    15  HIS15      -0.2864
     12  CB       -79.7210   62.2250  193.3660 C.3    15  HIS15       0.0771
     13  CG       -81.1770   62.4520  193.1120 C.ar   15  HIS15       0.0820
     14  ND1      -81.6600   63.5980  192.5180 N.ar   15  HIS15      -0.2267
     15  CD2      -82.2550   61.6680  193.3500 C.ar   15  HIS15       0.1154
     16  CE1      -82.9730   63.5080  192.3980 C.ar   15  HIS15       0.1986
     17  NE2      -83.3590   62.3470  192.8950 N.ar   15  HIS15      -0.2212
     18  N        -86.8530   54.9940  189.0880 N.3    64  GLU64      -0.1245
     19  CA       -86.2310   56.1320  189.7560 C.3    64  GLU64       0.1567
     20  C        -85.2190   56.7810  188.8150 C.2    64  GLU64       0.2260
     21  O        -85.0960   58.0030  188.7700 O.2    64  GLU64      -0.2867
     22  CB       -85.5430   55.6750  191.0550 C.3    64  GLU64       0.0388
     23  CG       -84.7230   56.7410  191.8000 C.3    64  GLU64       0.1160
     24  CD       -85.5050   58.0120  192.0950 C.2    64  GLU64       0.3649
     25  OE1      -86.7460   57.9680  192.0500 O.co2  64  GLU64      -0.2457
     26  OE2      -84.8890   59.0560  192.3850 O.co2  64  GLU64      -0.2457
     27  N        -86.9870   58.7660  186.1790 N.3    67  ALA67      -0.1245
     28  CA       -87.4700   60.0160  186.7570 C.3    67  ALA67       0.1562
     29  C        -86.3350   61.0340  186.8400 C.2    67  ALA67       0.2260
     30  O        -86.5060   62.1930  186.4760 O.2    67  ALA67      -0.2867
     31  CB       -88.0530   59.7630  188.1440 C.3    67  ALA67       0.0290
     32  N        -86.4170   72.4590  193.0360 N.3    90  ILE90      -0.1231
     33  CA       -86.8190   71.1540  193.5540 C.3    90  ILE90       0.1692
     34  C        -87.6560   70.4490  192.4890 C.2    90  ILE90       0.2592
     35  O        -88.6590   70.9960  192.0120 O.2    90  ILE90      -0.2718
     36  CB       -87.6980   71.3080  194.8250 C.3    90  ILE90       0.0266
     37  CG1      -86.8240   71.3420  196.0730 C.3    90  ILE90       0.0019
     38  CG2      -88.7310   70.1910  194.9070 C.3    90  ILE90       0.0020
     39  CD1      -87.6370   71.4750  197.3710 C.3    90  ILE90       0.0001
     40  N        -87.2490   69.2390  192.1200 N.am   91  VAL91      -0.1966
     41  CA       -87.9910   68.4760  191.1300 C.3    91  VAL91       0.1727
     42  C        -88.4290   67.1470  191.7180 C.2    91  VAL91       0.2616
     43  O        -87.6730   66.1730  191.6960 O.2    91  VAL91      -0.2715
     44  CB       -87.1470   68.1930  189.8920 C.3    91  VAL91       0.0290
     45  CG1      -87.9000   67.2400  188.9580 C.3    91  VAL91       0.0023
     46  CG2      -86.8210   69.5010  189.1900 C.3    91  VAL91       0.0023
     47  N        -89.6400   67.1070  192.2570 N.am   92  TYR92      -0.1960
     48  CA       -90.1440   65.8680  192.8280 C.3    92  TYR92       0.1771
     49  C        -91.2850   65.3350  191.9520 C.2    92  TYR92       0.2620
     50  O        -91.9590   66.1000  191.2490 O.2    92  TYR92      -0.2715
     51  CB       -90.6130   66.1120  194.2610 C.3    92  TYR92       0.0574
     52  CG       -91.9010   66.8920  194.3660 C.ar   92  TYR92      -0.0198
     53  CD1      -93.1290   66.2740  194.1140 C.ar   92  TYR92      -0.0009
     54  CD2      -91.9030   68.2350  194.7600 C.ar   92  TYR92      -0.0009
     55  CE1      -94.3330   66.9650  194.2550 C.ar   92  TYR92       0.0417
     56  CE2      -93.1050   68.9450  194.9090 C.ar   92  TYR92       0.0417
     57  CZ       -94.3200   68.2980  194.6540 C.ar   92  TYR92       0.1957
     58  OH       -95.5250   68.9650  194.8010 O.3    92  TYR92      -0.2866
     59  N        -91.5080   64.0270  191.9890 N.am   93  PHE93      -0.1960
     60  CA       -92.5580   63.4560  191.1640 C.3    93  PHE93       0.1771
     61  C        -93.8870   63.2300  191.8610 C.2    93  PHE93       0.2619
     62  O        -93.9720   62.5780  192.8950 O.2    93  PHE93      -0.2715
     63  CB       -92.0540   62.1760  190.4970 C.3    93  PHE93       0.0574
     64  CG       -91.0190   62.4360  189.4410 C.ar   93  PHE93      -0.0200
     65  CD1      -89.6910   62.6840  189.7900 C.ar   93  PHE93      -0.0042
     66  CD2      -91.3850   62.5100  188.0940 C.ar   93  PHE93      -0.0042
     67  CE1      -88.7410   63.0040  188.8180 C.ar   93  PHE93      -0.0003
     68  CE2      -90.4420   62.8310  187.1130 C.ar   93  PHE93      -0.0003
     69  CZ       -89.1160   63.0790  187.4790 C.ar   93  PHE93      -0.0000
     70  N        -94.9270   63.7970  191.2670 N.am   94  MET94      -0.1977
     71  CA       -96.2760   63.7080  191.7920 C.3    94  MET94       0.1605
     72  C        -96.9400   62.3850  191.4370 C.2    94  MET94       0.2287
     73  O        -97.5890   61.7520  192.2710 O.2    94  MET94      -0.2864
     74  CB       -97.1270   64.8360  191.2090 C.3    94  MET94       0.0413
     75  CG       -96.5870   66.2420  191.4190 C.3    94  MET94       0.0598
     76  SD       -97.5620   67.4750  190.4830 S.3    94  MET94      -0.1393
     77  CE       -99.1030   67.5440  191.4800 C.3    94  MET94       0.0692
     78  N        -86.7020   75.2740  196.1650 N.3   150  ARG150     -0.1231
     79  CA       -86.1440   74.5420  197.3060 C.3   150  ARG150      0.1694
     80  C        -86.6150   75.2270  198.5830 C.2   150  ARG150      0.2591
     81  O        -87.1440   76.3410  198.5330 O.2   150  ARG150     -0.2718
     82  CB       -84.6090   74.5510  197.2710 C.3   150  ARG150      0.0321
     83  CG       -83.9600   73.3750  198.0150 C.3   150  ARG150      0.0489
     84  CD       -83.6570   72.2190  197.0550 C.3   150  ARG150      0.2205
     85  NE       -82.2200   72.0690  196.8090 N.pl3 150  ARG150     -0.0865
     86  CZ       -81.6920   71.5220  195.7120 C.cat 150  ARG150      0.5346
     87  NH1      -80.3690   71.4190  195.5770 N.pl3 150  ARG150      0.1354
     88  NH2      -82.4810   71.0940  194.7340 N.pl3 150  ARG150      0.1354
     89  N        -86.4150   74.5720  199.7230 N.am  151  GLU151     -0.1979
     90  CA       -86.8400   75.1260  201.0160 C.3   151  GLU151      0.1602
     91  C        -88.3540   75.0060  201.1100 C.2   151  GLU151      0.2287
     92  O        -88.8680   74.8000  202.2400 O.2   151  GLU151     -0.2864
     93  CB       -86.4460   76.6070  201.1440 C.3   151  GLU151      0.0415
     94  CG       -85.0290   76.9150  200.6790 C.3   151  GLU151      0.1163
     95  CD       -83.9960   76.1360  201.4620 C.2   151  GLU151      0.3649
     96  OE1      -82.8030   76.1700  201.0630 O.co2 151  GLU151     -0.2457
     97  OE2      -84.3860   75.5010  202.4750 O.co2 151  GLU151     -0.2457
@<TRIPOS>BOND
     1    27    28    1
     2    30    29    2
     3    28    29    1
     4    28    31    1
     5    68    69   ar
     6    68    66   ar
     7    69    67   ar
     8    66    64   ar
     9    21    20    2
    10    20    19    1
    11    67    65   ar
    12    45    44    1
    13    18    19    1
    14    46    44    1
    15    64    65   ar
    16    64    63    1
    17    19    22    1
    18    44    41    1
    19    76    75    1
    20    76    77    1
    21    63    60    1
    22    22    23    1
    23    41    42    1
    24    41    40    1
    25    60    61    1
    26    60    59    1
    27    74    75    1
    28    74    71    1
    29    50    49    2
    30    70    71    1
    31    70    61   am
    32    72    71    1
    33    72    73    2
    34    43    42    2
    35    42    47   am
    36    23    24    1
    37    61    62    2
    38    49    59   am
    39    49    48    1
    40    35    34    2
    41    25    24   ar
    42    24    26   ar
    43    40    34   am
    44    47    48    1
    45    16    14   ar
    46    16    17   ar
    47    34    33    1
    48    14    13   ar
    49     7     1    1
    50     7     6    1
    51    48    51    1
    52     1     2    1
    53    17    15   ar
    54    32    33    1
    55    13    15   ar
    56    13    12    1
    57    12     9    1
    58    33    36    1
    59    11    10    2
    60     8     9    1
    61     8     3   am
    62    53    55   ar
    63    53    52   ar
    64     6     5    1
    65     2     3    1
    66     2     5    1
    67    55    57   ar
    68    51    52    1
    69    52    54   ar
    70     9    10    1
    71    57    58    1
    72    57    56   ar
    73    88    86    1
    74    54    56   ar
    75     3     4    2
    76    36    38    1
    77    36    37    1
    78    87    86    1
    79    86    85    2
    80    37    39    1
    81    78    79    1
    82    85    84    1
    83    84    83    1
    84    82    79    1
    85    82    83    1
    86    79    80    1
    87    81    80    2
    88    80    89   am
    89    89    90    1
    90    94    93    1
    91    94    95    1
    92    90    91    1
    93    90    93    1
    94    96    95   ar
    95    91    92    2
    96    95    97   ar
