@<TRIPOS>MOLECULE
tmp/2glmA01.pdb
 90 92 0 0 0
SMALL
GASTEIGER

@<TRIPOS>ATOM
      1  N        -80.1530   61.0210  199.5880 N.3    51  HIS51      -0.1226
      2  CA       -81.5160   61.3420  199.1960 C.3    51  HIS51       0.1752
      3  C        -82.3250   61.9420  200.3500 C.2    51  HIS51       0.2596
      4  O        -83.2370   61.3020  200.8760 O.2    51  HIS51      -0.2718
      5  CB       -82.1990   60.0820  198.6590 C.3    51  HIS51       0.0759
      6  CG       -83.4880   60.3460  197.9430 C.ar   51  HIS51       0.0818
      7  ND1      -84.6320   60.7590  198.5910 N.ar   51  HIS51      -0.2268
      8  CD2      -83.8130   60.2570  196.6310 C.ar   51  HIS51       0.1154
      9  CE1      -85.6050   60.9130  197.7100 C.ar   51  HIS51       0.1986
     10  NE2      -85.1340   60.6160  196.5130 N.ar   51  HIS51      -0.2212
     11  N        -81.9890   63.1660  200.7540 N.am   52  PHE52      -0.1963
     12  CA       -80.8950   63.9400  200.1610 C.3    52  PHE52       0.1756
     13  C        -80.0500   64.5400  201.2830 C.2    52  PHE52       0.2461
     14  O        -80.5010   64.6410  202.4180 O.2    52  PHE52      -0.2730
     15  CB       -81.4340   65.0910  199.2960 C.3    52  PHE52       0.0574
     16  CG       -82.3360   64.6580  198.1770 C.ar   52  PHE52      -0.0200
     17  CD1      -83.7070   64.5340  198.3780 C.ar   52  PHE52      -0.0042
     18  CD2      -81.8180   64.4050  196.9090 C.ar   52  PHE52      -0.0042
     19  CE1      -84.5470   64.1680  197.3300 C.ar   52  PHE52      -0.0003
     20  CE2      -82.6490   64.0380  195.8540 C.ar   52  PHE52      -0.0003
     21  CZ       -84.0160   63.9200  196.0630 C.ar   52  PHE52      -0.0000
     22  N        -78.8130   64.9570  200.9770 N.am   53  PRO53      -0.2716
     23  CA       -77.9770   65.5440  202.0310 C.3    53  PRO53       0.1536
     24  C        -78.6860   66.7530  202.6490 C.2    53  PRO53       0.2599
     25  O        -79.1760   67.6340  201.9320 O.2    53  PRO53      -0.2715
     26  CB       -76.7030   65.9330  201.2840 C.3    53  PRO53       0.0310
     27  CG       -76.6210   64.8990  200.1940 C.3    53  PRO53       0.0237
     28  CD       -78.0610   64.8360  199.7130 C.3    53  PRO53       0.0939
     29  N        -78.7520   66.8060  203.9720 N.am   54  ASN54      -0.1959
     30  CA       -79.4190   67.9080  204.6590 C.3    54  ASN54       0.1819
     31  C        -80.9250   67.9800  204.4430 C.2    54  ASN54       0.2621
     32  O        -81.5030   69.0550  204.5020 O.2    54  ASN54      -0.2715
     33  CB       -78.8000   69.2500  204.2600 C.3    54  ASN54       0.1195
     34  CG       -77.3320   69.3410  204.5940 C.2    54  ASN54       0.2630
     35  OD1      -76.8160   68.5600  205.3870 O.2    54  ASN54      -0.2716
     36  ND2      -76.6470   70.2940  203.9810 N.am   54  ASN54      -0.0877
     37  N        -81.5550   66.8440  204.1790 N.am   55  LYS55      -0.1977
     38  CA       -82.9760   66.8130  203.8490 C.3    55  LYS55       0.1596
     39  C        -83.4160   65.3730  203.5980 C.2    55  LYS55       0.2287
     40  O        -83.8080   65.0150  202.4910 O.2    55  LYS55      -0.2864
     41  CB       -83.2680   67.6540  202.6020 C.3    55  LYS55       0.0298
     42  CG       -84.5280   68.5070  202.7150 C.3    55  LYS55       0.0038
     43  CD       -85.6730   67.7390  203.3560 C.3    55  LYS55       0.0206
     44  CE       -86.8740   68.6440  203.6240 C.3    55  LYS55       0.1093
     45  NZ       -87.5750   69.0660  202.3670 N.3    55  LYS55      -0.1314
     46  N        -85.3690   62.3000  202.8690 N.3    57  ILE57      -0.1245
     47  CA       -86.6900   62.0200  202.3210 C.3    57  ILE57       0.1561
     48  C        -86.6980   60.5830  201.8060 C.2    57  ILE57       0.2260
     49  O        -85.8960   60.2190  200.9450 O.2    57  ILE57      -0.2867
     50  CB       -87.0430   62.9920  201.1690 C.3    57  ILE57       0.0252
     51  CG1      -87.1750   64.4100  201.7230 C.3    57  ILE57       0.0019
     52  CG2      -88.3350   62.5640  200.4980 C.3    57  ILE57       0.0019
     53  CD1      -87.6470   65.4080  200.7130 C.3    57  ILE57       0.0001
     54  N        -97.9180   60.3540  194.8120 N.3   102  PHE102     -0.1227
     55  CA       -97.2060   60.6940  196.0420 C.3   102  PHE102      0.1736
     56  C        -97.8380   61.9570  196.5960 C.2   102  PHE102      0.2595
     57  O        -97.7580   63.0160  195.9810 O.2   102  PHE102     -0.2718
     58  CB       -95.7200   60.9200  195.7530 C.3   102  PHE102      0.0547
     59  CG       -95.0110   59.6960  195.2320 C.ar  102  PHE102     -0.0202
     60  CD1      -94.4010   59.7060  193.9820 C.ar  102  PHE102     -0.0042
     61  CD2      -94.9600   58.5300  195.9880 C.ar  102  PHE102     -0.0042
     62  CE1      -93.7550   58.5730  193.4990 C.ar  102  PHE102     -0.0003
     63  CE2      -94.3190   57.3990  195.5120 C.ar  102  PHE102     -0.0003
     64  CZ       -93.7160   57.4180  194.2690 C.ar  102  PHE102     -0.0000
     65  N        -98.4700   61.8430  197.7590 N.am  103  ARG103     -0.1966
     66  CA       -99.1550   62.9750  198.3720 C.3   103  ARG103      0.1729
     67  C        -98.3490   63.7270  199.4250 C.2   103  ARG103      0.2616
     68  O        -98.4020   64.9550  199.4980 O.2   103  ARG103     -0.2715
     69  CB      -100.4760   62.5060  198.9990 C.3   103  ARG103      0.0348
     70  CG      -101.5200   61.9340  198.0180 C.3   103  ARG103      0.0492
     71  CD      -102.8870   61.7980  198.7270 C.3   103  ARG103      0.2205
     72  NE      -103.9630   61.1970  197.9220 N.pl3 103  ARG103     -0.0865
     73  CZ      -104.4240   61.6890  196.7700 C.cat 103  ARG103      0.5346
     74  NH1     -103.9000   62.7980  196.2560 N.pl3 103  ARG103      0.1354
     75  NH2     -105.4350   61.0920  196.1390 N.pl3 103  ARG103      0.1354
     76  N        -97.6080   62.9950  200.2470 N.am  104  ILE104     -0.1964
     77  CA       -96.8370   63.6210  201.3110 C.3   104  ILE104      0.1712
     78  C        -95.4640   62.9850  201.4750 C.2   104  ILE104      0.2458
     79  O        -95.3290   61.7600  201.4460 O.2   104  ILE104     -0.2730
     80  CB       -97.5780   63.5030  202.6650 C.3   104  ILE104      0.0289
     81  CG1      -98.9810   64.1040  202.5520 C.3   104  ILE104      0.0022
     82  CG2      -96.7800   64.1960  203.7670 C.3   104  ILE104      0.0023
     83  CD1      -99.8170   63.9520  203.8140 C.3   104  ILE104      0.0001
     84  N        -94.4200   63.8090  201.6540 N.am  105  PRO105     -0.2727
     85  CA       -93.0890   63.2270  201.8210 C.3   105  PRO105      0.1402
     86  C        -92.9510   62.4090  203.1030 C.2   105  PRO105      0.2269
     87  O        -93.5340   62.7320  204.1380 O.2   105  PRO105     -0.2865
     88  CB       -92.1750   64.4500  201.8120 C.3   105  PRO105      0.0296
     89  CG       -93.0390   65.5180  202.3810 C.3   105  PRO105      0.0237
     90  CD       -94.3500   65.2800  201.6690 C.3   105  PRO105      0.0939
@<TRIPOS>BOND
     1    62    60   ar
     2    62    64   ar
     3    60    59   ar
     4    64    63   ar
     5    54    55    1
     6    59    58    1
     7    59    61   ar
     8    63    61   ar
     9    58    55    1
    10    20    21   ar
    11    20    18   ar
    12    57    56    2
    13    55    56    1
    14    21    19   ar
    15    75    73    1
    16    74    73    1
    17    10     8   ar
    18    10     9   ar
    19    56    65   am
    20     8     6   ar
    21    73    72    2
    22    18    16   ar
    23    19    17   ar
    24     9     7   ar
    25    65    66    1
    26    72    71    1
    27     6     7   ar
    28     6     5    1
    29    70    71    1
    30    70    69    1
    31    16    17   ar
    32    16    15    1
    33    66    69    1
    34    66    67    1
    35     5     2    1
    36     2     1    1
    37     2     3    1
    38    15    12    1
    39    67    68    2
    40    67    76   am
    41    28    27    1
    42    28    22    1
    43    12    11    1
    44    12    13    1
    45    27    26    1
    46    76    77    1
    47     3    11   am
    48     3     4    2
    49    52    50    1
    50    53    51    1
    51    49    48    2
    52    22    13   am
    53    22    23    1
    54    50    51    1
    55    50    47    1
    56    13    14    2
    57    26    23    1
    58    77    78    1
    59    77    80    1
    60    79    78    2
    61    78    84   am
    62    84    90    1
    63    84    85    1
    64    90    89    1
    65    48    47    1
    66    88    85    1
    67    88    89    1
    68    85    86    1
    69    25    24    2
    70    23    24    1
    71    47    46    1
    72    45    44    1
    73    40    39    2
    74    81    80    1
    75    81    83    1
    76    41    42    1
    77    41    38    1
    78    24    29   am
    79    80    82    1
    80    42    43    1
    81    86    87    2
    82    43    44    1
    83    39    38    1
    84    38    37    1
    85    29    30    1
    86    36    34   am
    87    37    31   am
    88    33    34    1
    89    33    30    1
    90    31    32    2
    91    31    30    1
    92    34    35    2
