@<TRIPOS>MOLECULE
tmp/2glpB01.pdb
 113 109 0 0 0
SMALL
GASTEIGER

@<TRIPOS>ATOM
      1  N        -76.1980   69.3190   95.8790 N.3    12  ILE12      -0.1231
      2  CA       -77.6040   69.6010   95.6350 C.3    12  ILE12       0.1692
      3  C        -78.5320   68.8350   96.5750 C.2    12  ILE12       0.2592
      4  O        -79.4530   69.4070   97.1520 O.2    12  ILE12      -0.2718
      5  CB       -77.9740   69.3010   94.1690 C.3    12  ILE12       0.0266
      6  CG1      -77.1500   70.2030   93.2380 C.3    12  ILE12       0.0019
      7  CG2      -79.4550   69.5350   93.9460 C.3    12  ILE12       0.0020
      8  CD1      -77.3090   71.6880   93.5130 C.3    12  ILE12       0.0001
      9  N        -78.2820   67.5440   96.7410 N.am   13  LEU13      -0.1966
     10  CA       -79.1110   66.7370   97.6260 C.3    13  LEU13       0.1713
     11  C        -78.6180   66.8070   99.0760 C.2    13  LEU13       0.2458
     12  O        -77.4160   66.8410   99.3350 O.2    13  LEU13      -0.2730
     13  CB       -79.1280   65.2780   97.1580 C.3    13  LEU13       0.0310
     14  CG       -79.7640   64.9640   95.8030 C.3    13  LEU13       0.0022
     15  CD1      -79.7100   63.4790   95.5350 C.3    13  LEU13       0.0001
     16  CD2      -81.1910   65.4210   95.7890 C.3    13  LEU13       0.0001
     17  N        -79.5540   66.8650  100.0380 N.am   14  PRO14      -0.2716
     18  CA       -79.2160   66.9250  101.4640 C.3    14  PRO14       0.1536
     19  C        -78.9130   65.5210  102.0060 C.2    14  PRO14       0.2598
     20  O        -78.3180   65.3670  103.0770 O.2    14  PRO14      -0.2715
     21  CB       -80.4730   67.5280  102.0850 C.3    14  PRO14       0.0310
     22  CG       -81.5520   66.9590  101.2290 C.3    14  PRO14       0.0237
     23  CD       -80.9890   67.1390   99.8360 C.3    14  PRO14       0.0939
     24  N        -79.3240   64.5080  101.2470 N.am   15  HIS15      -0.1974
     25  CA       -79.1180   63.1150  101.6290 C.3    15  HIS15       0.1656
     26  C        -77.6410   62.7930  101.7700 C.2    15  HIS15       0.2291
     27  O        -76.8060   63.3080  101.0290 O.2    15  HIS15      -0.2864
     28  CB       -79.7170   62.1710  100.5820 C.3    15  HIS15       0.0771
     29  CG       -81.1460   62.4620  100.2500 C.ar   15  HIS15       0.0820
     30  ND1      -81.5510   63.6570   99.6960 N.ar   15  HIS15      -0.2267
     31  CD2      -82.2670   61.7170  100.4030 C.ar   15  HIS15       0.1154
     32  CE1      -82.8600   63.6360   99.5220 C.ar   15  HIS15       0.1986
     33  NE2      -83.3180   62.4710   99.9430 N.ar   15  HIS15      -0.2212
     34  N        -86.9340   58.7520   93.3220 N.3    67  ALA67      -0.1231
     35  CA       -87.4080   59.9910   93.9290 C.3    67  ALA67       0.1694
     36  C        -86.2860   61.0220   93.9740 C.2    67  ALA67       0.2591
     37  O        -86.4540   62.1500   93.5210 O.2    67  ALA67      -0.2718
     38  CB       -87.9230   59.7270   95.3330 C.3    67  ALA67       0.0304
     39  N        -85.1380   60.6320   94.5170 N.am   68  GLN68      -0.1979
     40  CA       -84.0090   61.5490   94.6050 C.3    68  GLN68       0.1601
     41  C        -83.6320   62.0740   93.2230 C.2    68  GLN68       0.2287
     42  O        -83.3410   63.2570   93.0710 O.2    68  GLN68      -0.2864
     43  CB       -82.8250   60.8560   95.2820 C.3    68  GLN68       0.0394
     44  CG       -83.1520   60.4440   96.7120 C.3    68  GLN68       0.0908
     45  CD       -82.0420   59.6710   97.3960 C.2    68  GLN68       0.2608
     46  OE1      -82.2720   59.0320   98.4220 O.2    68  GLN68      -0.2717
     47  NE2      -80.8340   59.7310   96.8390 N.am   68  GLN68      -0.0878
     48  N        -86.2240   64.5990   92.2630 N.3    71  GLY71      -0.1225
     49  CA       -86.1370   65.8470   92.9980 C.3    71  GLY71       0.1811
     50  C        -84.9750   66.6650   92.4620 C.2    71  GLY71       0.2280
     51  O        -84.9980   67.8980   92.4730 O.2    71  GLY71      -0.2866
     52  N        -85.5580   70.3640   91.0190 N.3    75  PHE75      -0.1241
     53  CA       -84.7640   71.4500   91.5580 C.3    75  PHE75       0.1605
     54  C        -83.8760   72.1260   90.5070 C.2    75  PHE75       0.2264
     55  O        -83.9040   73.3490   90.3670 O.2    75  PHE75      -0.2867
     56  CB       -83.8860   70.9630   92.7100 C.3    75  PHE75       0.0534
     57  CG       -83.0340   72.0450   93.3000 C.ar   75  PHE75      -0.0203
     58  CD1      -83.5530   72.9210   94.2400 C.ar   75  PHE75      -0.0042
     59  CD2      -81.7350   72.2490   92.8480 C.ar   75  PHE75      -0.0042
     60  CE1      -82.7910   73.9870   94.7190 C.ar   75  PHE75      -0.0003
     61  CE2      -80.9710   73.3100   93.3200 C.ar   75  PHE75      -0.0003
     62  CZ       -81.5000   74.1780   94.2530 C.ar   75  PHE75      -0.0000
     63  N        -79.8670   75.6800   97.0040 N.3    86  ALA86      -0.1245
     64  CA       -80.1670   74.3030   97.3950 C.3    86  ALA86       0.1562
     65  C        -80.2880   74.1150   98.8990 C.2    86  ALA86       0.2260
     66  O        -81.0590   73.2730   99.3680 O.2    86  ALA86      -0.2867
     67  CB       -79.1120   73.3630   96.8480 C.3    86  ALA86       0.0290
     68  N        -83.7910   75.1630  100.1760 N.3    89  LYS89      -0.1231
     69  CA       -84.9540   74.4280   99.7080 C.3    89  LYS89       0.1693
     70  C        -84.9990   72.9610  100.1090 C.2    89  LYS89       0.2592
     71  O        -83.9670   72.3310  100.3690 O.2    89  LYS89      -0.2718
     72  CB       -85.0580   74.5220   98.1860 C.3    89  LYS89       0.0285
     73  CG       -85.8820   75.6880   97.6960 C.3    89  LYS89       0.0035
     74  CD       -85.2730   77.0060   98.0940 C.3    89  LYS89       0.0206
     75  CE       -86.2960   78.1130   97.9470 C.3    89  LYS89       0.1093
     76  NZ       -86.8540   78.1170   96.5690 N.3    89  LYS89      -0.1314
     77  N        -86.2150   72.4320  100.1840 N.am   90  ILE90      -0.1966
     78  CA       -86.3960   71.0290  100.4890 C.3    90  ILE90       0.1727
     79  C        -87.4550   70.4370   99.5700 C.2    90  ILE90       0.2616
     80  O        -88.5320   71.0050   99.3770 O.2    90  ILE90      -0.2715
     81  CB       -86.7940   70.7680  101.9670 C.3    90  ILE90       0.0290
     82  CG1      -87.0600   69.2710  102.1560 C.3    90  ILE90       0.0022
     83  CG2      -88.0290   71.5560  102.3450 C.3    90  ILE90       0.0023
     84  CD1      -85.9230   68.3660  101.6400 C.3    90  ILE90       0.0001
     85  N        -87.1190   69.3030   98.9750 N.am   91  VAL91      -0.1977
     86  CA       -88.0380   68.6130   98.0920 C.3    91  VAL91       0.1596
     87  C        -88.4160   67.3080   98.7690 C.2    91  VAL91       0.2287
     88  O        -87.5840   66.4020   98.8830 O.2    91  VAL91      -0.2864
     89  CB       -87.3820   68.2860   96.7340 C.3    91  VAL91       0.0276
     90  CG1      -88.2970   67.3750   95.9170 C.3    91  VAL91       0.0022
     91  CG2      -87.0930   69.5720   95.9800 C.3    91  VAL91       0.0022
     92  N        -91.4550   64.1390   99.0350 N.3    93  PHE93      -0.1241
     93  CA       -92.5180   63.5320   98.2480 C.3    93  PHE93       0.1605
     94  C        -93.8360   63.3580   98.9730 C.2    93  PHE93       0.2264
     95  O        -93.8860   62.8910  100.1110 O.2    93  PHE93      -0.2867
     96  CB       -92.0390   62.2030   97.6670 C.3    93  PHE93       0.0534
     97  CG       -91.0370   62.3740   96.5690 C.ar   93  PHE93      -0.0203
     98  CD1      -89.7070   62.6900   96.8630 C.ar   93  PHE93      -0.0042
     99  CD2      -91.4390   62.3180   95.2340 C.ar   93  PHE93      -0.0042
    100  CE1      -88.7900   62.9580   95.8410 C.ar   93  PHE93      -0.0003
    101  CE2      -90.5290   62.5830   94.2020 C.ar   93  PHE93      -0.0003
    102  CZ       -89.2030   62.9050   94.5070 C.ar   93  PHE93      -0.0000
    103  N        -86.5440   75.4190  103.1570 N.3   150  ARG150     -0.1245
    104  CA       -86.0070   74.7220  104.3240 C.3   150  ARG150      0.1563
    105  C        -86.3360   75.5140  105.5820 C.2   150  ARG150      0.2260
    106  O        -86.7310   76.6780  105.5040 O.2   150  ARG150     -0.2867
    107  CB       -84.4930   74.5020  104.2230 C.3   150  ARG150      0.0307
    108  CG       -84.1020   73.4230  103.2140 C.3   150  ARG150      0.0489
    109  CD       -82.8020   72.7000  103.6000 C.3   150  ARG150      0.2205
    110  NE       -82.2710   71.9150  102.4800 N.pl3 150  ARG150     -0.0865
    111  CZ       -81.0650   71.3460  102.4560 C.cat 150  ARG150      0.5346
    112  NH1      -80.6790   70.6580  101.3840 N.pl3 150  ARG150      0.1354
    113  NH2      -80.2440   71.4580  103.5000 N.pl3 150  ARG150      0.1354
@<TRIPOS>BOND
     1    55    54    2
     2    54    53    1
     3    52    53    1
     4    53    56    1
     5    48    49    1
     6    50    51    2
     7    50    49    1
     8    56    57    1
     9    59    57   ar
    10    59    61   ar
    11    42    41    2
    12    41    40    1
    13     6     8    1
    14     6     5    1
    15    57    58   ar
    16    61    62   ar
    17    34    35    1
    18    37    36    2
    19    35    36    1
    20    35    38    1
    21     7     5    1
    22    36    39   am
    23     5     2    1
    24   101   102   ar
    25   101    99   ar
    26    58    60   ar
    27    62    60   ar
    28   102   100   ar
    29    39    40    1
    30    40    43    1
    31    99    97   ar
    32    43    44    1
    33    15    14    1
    34     2     1    1
    35     2     3    1
    36    16    14    1
    37    14    13    1
    38   100    98   ar
    39    90    89    1
    40    91    89    1
    41    76    75    1
    42    97    98   ar
    43    97    96    1
    44     3     9   am
    45     3     4    2
    46    44    45    1
    47    89    86    1
    48     9    10    1
    49    47    45   am
    50    67    64    1
    51    63    64    1
    52    13    10    1
    53    64    65    1
    54    45    46    2
    55    10    11    1
    56    96    93    1
    57    73    74    1
    58    73    72    1
    59    75    74    1
    60    86    87    1
    61    86    85    1
    62    72    69    1
    63    93    94    1
    64    93    92    1
    65    87    88    2
    66    65    66    2
    67    94    95    2
    68    85    79   am
    69    11    12    2
    70    11    17   am
    71    80    79    2
    72    32    30   ar
    73    32    33   ar
    74    79    78    1
    75    30    29   ar
    76    69    70    1
    77    69    68    1
    78    23    17    1
    79    23    22    1
    80    33    31   ar
    81    17    18    1
    82    70    77   am
    83    70    71    2
    84    77    78    1
    85    29    31   ar
    86    29    28    1
    87    78    81    1
    88    28    25    1
    89    27    26    2
    90    22    21    1
    91    24    25    1
    92    24    19   am
    93   112   111    1
    94    18    19    1
    95    18    21    1
    96    25    26    1
    97    84    82    1
    98    81    82    1
    99    81    83    1
   100    19    20    2
   101   111   110    2
   102   111   113    1
   103   110   109    1
   104   103   104    1
   105   108   109    1
   106   108   107    1
   107   107   104    1
   108   104   105    1
   109   106   105    2
