@<TRIPOS>MOLECULE
tmp/2glpC01.pdb
 120 118 0 0 0
SMALL
GASTEIGER

@<TRIPOS>ATOM
      1  N        -66.5010   31.0460  124.2120 N.3    12  ILE12      -0.1231
      2  CA       -67.0680   31.0200  125.5570 C.3    12  ILE12       0.1692
      3  C        -68.1490   32.0790  125.7950 C.2    12  ILE12       0.2592
      4  O        -69.2180   31.7770  126.3350 O.2    12  ILE12      -0.2718
      5  CB       -65.9680   31.1800  126.6320 C.3    12  ILE12       0.0266
      6  CG1      -64.8710   30.1220  126.4300 C.3    12  ILE12       0.0019
      7  CG2      -66.5840   31.0760  128.0180 C.3    12  ILE12       0.0020
      8  CD1      -65.3430   28.6870  126.5440 C.3    12  ILE12       0.0001
      9  N        -67.8640   33.3170  125.4120 N.am   13  LEU13      -0.1966
     10  CA       -68.8300   34.3960  125.5800 C.3    13  LEU13       0.1713
     11  C        -69.7900   34.4370  124.3930 C.2    13  LEU13       0.2458
     12  O        -69.4150   34.1390  123.2650 O.2    13  LEU13      -0.2730
     13  CB       -68.1210   35.7540  125.7080 C.3    13  LEU13       0.0310
     14  CG       -67.1870   35.9690  126.9000 C.3    13  LEU13       0.0022
     15  CD1      -66.6350   37.3870  126.8620 C.3    13  LEU13       0.0001
     16  CD2      -67.9400   35.7370  128.1950 C.3    13  LEU13       0.0001
     17  N        -71.0550   34.7910  124.6430 N.am   14  PRO14      -0.2716
     18  CA       -72.0550   34.8680  123.5770 C.3    14  PRO14       0.1536
     19  C        -71.9290   36.1910  122.8350 C.2    14  PRO14       0.2598
     20  O        -72.3170   36.3030  121.6790 O.2    14  PRO14      -0.2715
     21  CB       -73.3680   34.7660  124.3430 C.3    14  PRO14       0.0310
     22  CG       -73.0570   35.5150  125.5860 C.3    14  PRO14       0.0237
     23  CD       -71.6820   34.9990  125.9600 C.3    14  PRO14       0.0939
     24  N        -71.3770   37.1840  123.5190 N.am   15  HIS15      -0.1974
     25  CA       -71.1950   38.5180  122.9680 C.3    15  HIS15       0.1656
     26  C        -70.4820   38.5240  121.6230 C.2    15  HIS15       0.2291
     27  O        -69.5510   37.7620  121.3900 O.2    15  HIS15      -0.2864
     28  CB       -70.3990   39.3980  123.9350 C.3    15  HIS15       0.0771
     29  CG       -70.9680   39.4580  125.3150 C.ar   15  HIS15       0.0820
     30  ND1      -70.9310   38.3890  126.1820 N.ar   15  HIS15      -0.2267
     31  CD2      -71.5730   40.4660  125.9860 C.ar   15  HIS15       0.1154
     32  CE1      -71.4860   38.7370  127.3280 C.ar   15  HIS15       0.1986
     33  NE2      -71.8840   39.9930  127.2350 N.ar   15  HIS15      -0.2212
     34  N        -67.6550   41.4820  131.5940 N.3    68  GLN68      -0.1245
     35  CA       -67.4150   40.3890  130.6650 C.3    68  GLN68       0.1566
     36  C        -66.2590   39.5110  131.1230 C.2    68  GLN68       0.2260
     37  O        -66.2910   38.2960  130.9490 O.2    68  GLN68      -0.2867
     38  CB       -67.1790   40.9360  129.2510 C.3    68  GLN68       0.0367
     39  CG       -68.4830   41.2680  128.5390 C.3    68  GLN68       0.0905
     40  CD       -68.3000   41.9970  127.2170 C.2    68  GLN68       0.2608
     41  OE1      -67.4180   41.6700  126.4280 O.2    68  GLN68      -0.2717
     42  NE2      -69.1550   42.9790  126.9660 N.am   68  GLN68      -0.0878
     43  N        -67.5770   37.4050  133.9580 N.3    71  GLY71      -0.1225
     44  CA       -68.3440   36.3070  133.4070 C.3    71  GLY71       0.1811
     45  C        -67.4400   35.1840  132.9150 C.2    71  GLY71       0.2280
     46  O        -67.7400   34.0090  133.1180 O.2    71  GLY71      -0.2866
     47  N        -67.4930   31.4740  134.5580 N.3    75  PHE75      -0.1241
     48  CA       -67.7370   30.3160  133.7110 C.3    75  PHE75       0.1605
     49  C        -66.5840   29.3170  133.6360 C.2    75  PHE75       0.2264
     50  O        -66.8060   28.1140  133.7860 O.2    75  PHE75      -0.2867
     51  CB       -68.1080   30.7140  132.2850 C.3    75  PHE75       0.0534
     52  CG       -68.3850   29.5340  131.4090 C.ar   75  PHE75      -0.0203
     53  CD1      -69.6630   28.9860  131.3410 C.ar   75  PHE75      -0.0042
     54  CD2      -67.3480   28.9000  130.7290 C.ar   75  PHE75      -0.0042
     55  CE1      -69.9030   27.8200  130.6130 C.ar   75  PHE75      -0.0003
     56  CE2      -67.5770   27.7340  130.0010 C.ar   75  PHE75      -0.0003
     57  CZ       -68.8580   27.1930  129.9430 C.ar   75  PHE75      -0.0000
     58  N        -70.8080   26.0420  127.2700 N.3    86  ALA86      -0.1245
     59  CA       -70.9020   27.5000  127.2200 C.3    86  ALA86       0.1562
     60  C        -72.1790   27.9750  126.5300 C.2    86  ALA86       0.2260
     61  O        -72.7870   28.9610  126.9530 O.2    86  ALA86      -0.2867
     62  CB       -69.6870   28.0740  126.5030 C.3    86  ALA86       0.0290
     63  N        -75.3920   28.2700  128.8370 N.3    89  LYS89      -0.1231
     64  CA       -75.3770   29.1170  130.0210 C.3    89  LYS89       0.1693
     65  C        -75.5800   30.6110  129.7780 C.2    89  LYS89       0.2592
     66  O        -75.2810   31.1440  128.7060 O.2    89  LYS89      -0.2718
     67  CB       -74.0580   28.9230  130.7720 C.3    89  LYS89       0.0285
     68  CG       -73.7140   27.4820  131.0800 C.3    89  LYS89       0.0035
     69  CD       -74.7790   26.8180  131.9480 C.3    89  LYS89       0.0206
     70  CE       -74.4750   25.3350  132.1030 C.3    89  LYS89       0.1093
     71  NZ       -75.5680   24.5770  132.7690 N.3    89  LYS89      -0.1314
     72  N        -76.0820   31.2750  130.8110 N.am   90  ILE90      -0.1966
     73  CA       -76.3230   32.7110  130.7960 C.3    90  ILE90       0.1727
     74  C        -75.6730   33.2970  132.0430 C.2    90  ILE90       0.2616
     75  O        -75.7960   32.7240  133.1220 O.2    90  ILE90      -0.2715
     76  CB       -77.8410   33.0390  130.8920 C.3    90  ILE90       0.0290
     77  CG1      -78.5430   32.7090  129.5820 C.3    90  ILE90       0.0022
     78  CG2      -78.0550   34.5060  131.2460 C.3    90  ILE90       0.0023
     79  CD1      -80.0270   33.0130  129.6260 C.3    90  ILE90       0.0001
     80  N        -74.9570   34.4060  131.8980 N.am   91  VAL91      -0.1963
     81  CA       -74.4000   35.0790  133.0650 C.3    91  VAL91       0.1727
     82  C        -75.1270   36.4130  133.1080 C.2    91  VAL91       0.2616
     83  O        -74.7130   37.3850  132.4770 O.2    91  VAL91      -0.2715
     84  CB       -72.8800   35.3410  132.9810 C.3    91  VAL91       0.0290
     85  CG1      -72.4540   36.1960  134.1810 C.3    91  VAL91       0.0023
     86  CG2      -72.1090   34.0230  133.0080 C.3    91  VAL91       0.0023
     87  N        -76.2370   36.4330  133.8380 N.am   92  TYR92      -0.1960
     88  CA       -77.0740   37.6230  133.9800 C.3    92  TYR92       0.1771
     89  C        -76.5100   38.4990  135.1020 C.2    92  TYR92       0.2619
     90  O        -76.3620   38.0450  136.2400 O.2    92  TYR92      -0.2715
     91  CB       -78.5180   37.1750  134.2840 C.3    92  TYR92       0.0574
     92  CG       -79.5460   38.2810  134.4140 C.ar   92  TYR92      -0.0198
     93  CD1      -79.6650   39.0230  135.5970 C.ar   92  TYR92      -0.0009
     94  CD2      -80.4080   38.5920  133.3490 C.ar   92  TYR92      -0.0009
     95  CE1      -80.6180   40.0550  135.7210 C.ar   92  TYR92       0.0417
     96  CE2      -81.3720   39.6280  133.4570 C.ar   92  TYR92       0.0417
     97  CZ       -81.4690   40.3540  134.6470 C.ar   92  TYR92       0.1957
     98  OH       -82.4130   41.3670  134.7660 O.3    92  TYR92      -0.2866
     99  N        -76.1690   39.7450  134.7740 N.am   93  PHE93      -0.1974
    100  CA       -75.6330   40.6630  135.7730 C.3    93  PHE93       0.1639
    101  C        -76.7430   41.3790  136.5270 C.2    93  PHE93       0.2290
    102  O        -77.5570   42.0960  135.9340 O.2    93  PHE93      -0.2864
    103  CB       -74.6750   41.6680  135.1350 C.3    93  PHE93       0.0560
    104  CG       -73.2640   41.1680  135.0630 C.ar   93  PHE93      -0.0200
    105  CD1      -72.8310   40.4080  133.9770 C.ar   93  PHE93      -0.0042
    106  CD2      -72.3850   41.3830  136.1280 C.ar   93  PHE93      -0.0042
    107  CE1      -71.5450   39.8650  133.9510 C.ar   93  PHE93      -0.0003
    108  CE2      -71.0960   40.8440  136.1190 C.ar   93  PHE93      -0.0003
    109  CZ       -70.6770   40.0820  135.0260 C.ar   93  PHE93      -0.0000
    110  N        -79.4900   28.9650  129.6680 N.3   150  ARG150     -0.1245
    111  CA       -80.0110   29.7270  128.5320 C.3   150  ARG150      0.1563
    112  C        -81.3230   29.0620  128.1060 C.2   150  ARG150      0.2260
    113  O        -81.7100   28.0320  128.6670 O.2   150  ARG150     -0.2867
    114  CB       -79.0020   29.7090  127.3700 C.3   150  ARG150      0.0307
    115  CG       -79.3210   30.7140  126.2640 C.3   150  ARG150      0.0489
    116  CD       -78.2360   30.8010  125.1750 C.3   150  ARG150      0.2205
    117  NE       -76.8890   31.0630  125.6930 N.pl3 150  ARG150     -0.0865
    118  CZ       -75.8190   31.2740  124.9220 C.cat 150  ARG150      0.5346
    119  NH1      -75.9430   31.2660  123.5960 N.pl3 150  ARG150      0.1354
    120  NH2      -74.6170   31.4660  125.4680 N.pl3 150  ARG150      0.1354
@<TRIPOS>BOND
     1    27    26    2
     2    26    25    1
     3    20    19    2
     4    19    24   am
     5    19    18    1
     6    25    24    1
     7    25    28    1
     8    12    11    2
     9    18    21    1
    10    18    17    1
    11   119   118    1
    12    28    29    1
    13     1     2    1
    14    21    22    1
    15    11    17   am
    16    11    10    1
    17    17    23    1
    18   118   120    1
    19   118   117    2
    20   116   117    1
    21   116   115    1
    22    29    31   ar
    23    29    30   ar
    24     9    10    1
    25     9     3   am
    26     2     3    1
    27     2     5    1
    28    10    13    1
    29    22    23    1
    30    13    14    1
    31     3     4    2
    32    31    33   ar
    33    30    32   ar
    34   115   114    1
    35    41    40    2
    36     6     8    1
    37     6     5    1
    38    62    59    1
    39    60    61    2
    40    60    59    1
    41     5     7    1
    42    15    14    1
    43    14    16    1
    44    42    40   am
    45    40    39    1
    46    59    58    1
    47    33    32   ar
    48   114   111    1
    49   112   111    1
    50   112   113    2
    51   111   110    1
    52    39    38    1
    53    66    65    2
    54    63    64    1
    55    38    35    1
    56    77    79    1
    57    77    76    1
    58    65    64    1
    59    65    72   am
    60    57    56   ar
    61    57    55   ar
    62    56    54   ar
    63    64    67    1
    64    55    53   ar
    65    35    36    1
    66    35    34    1
    67    54    52   ar
    68    67    68    1
    69    73    72    1
    70    73    76    1
    71    73    74    1
    72    76    78    1
    73    37    36    2
    74    68    69    1
    75    53    52   ar
    76    52    51    1
    77    80    74   am
    78    80    81    1
    79    69    70    1
    80    74    75    2
    81    70    71    1
    82    51    48    1
    83    83    82    2
    84    45    46    2
    85    45    44    1
    86    84    86    1
    87    84    81    1
    88    84    85    1
    89    81    82    1
    90    82    87   am
    91    94    96   ar
    92    94    92   ar
    93    44    43    1
    94    96    97   ar
    95    49    48    1
    96    49    50    2
    97    48    47    1
    98    87    88    1
    99   107   105   ar
   100   107   109   ar
   101   105   104   ar
   102    88    91    1
   103    88    89    1
   104    91    92    1
   105    92    93   ar
   106    97    98    1
   107    97    95   ar
   108    99    89   am
   109    99   100    1
   110   109   108   ar
   111   104   103    1
   112   104   106   ar
   113    89    90    2
   114   103   100    1
   115    93    95   ar
   116   100   101    1
   117   102   101    2
   118   108   106   ar
