@<TRIPOS>MOLECULE
tmp/2gluA00.pdb
 172 172 0 0 0
SMALL
GASTEIGER

@<TRIPOS>ATOM
      1  N          6.1100   38.9370  112.7010 N.3    21  ASP21      -0.1225
      2  CA         6.7530   39.9210  111.8000 C.3    21  ASP21       0.1805
      3  C          8.2250   40.1500  112.1530 C.2    21  ASP21       0.2598
      4  O          8.5330   40.6990  113.1980 O.2    21  ASP21      -0.2718
      5  CB         5.9850   41.2480  111.8930 C.3    21  ASP21       0.1424
      6  CG         6.5160   42.3430  110.9580 C.2    21  ASP21       0.3668
      7  OD1        7.1030   42.0380  109.8880 O.co2  21  ASP21      -0.2456
      8  OD2        6.2920   43.5280  111.3020 O.co2  21  ASP21      -0.2456
      9  N          9.1280   39.7530  111.2670 N.am   22  ILE22      -0.1966
     10  CA        10.5580   39.8040  111.5410 C.3    22  ILE22       0.1727
     11  C         11.2280   41.0270  110.9280 C.2    22  ILE22       0.2617
     12  O         11.0580   41.2920  109.7430 O.2    22  ILE22      -0.2715
     13  CB        11.2220   38.5700  110.9760 C.3    22  ILE22       0.0290
     14  CG1       10.5840   37.3610  111.6280 C.3    22  ILE22       0.0022
     15  CG2       12.7430   38.5910  111.2030 C.3    22  ILE22       0.0023
     16  CD1       10.9610   36.0730  110.9900 C.3    22  ILE22       0.0001
     17  N         12.0400   41.7270  111.7230 N.am   23  GLY23      -0.1940
     18  CA        12.6210   43.0040  111.3290 C.3    23  GLY23       0.2014
     19  C         11.4900   44.0060  111.2530 C.2    23  GLY23       0.2639
     20  O         11.3940   44.7590  110.2860 O.2    23  GLY23      -0.2714
     21  N         10.6440   44.0080  112.2880 N.am   24  ALA24      -0.1963
     22  CA         9.2950   44.6010  112.2340 C.3    24  ALA24       0.1728
     23  C          9.2700   46.1190  112.1650 C.2    24  ALA24       0.2617
     24  O          8.3060   46.6950  111.6630 O.2    24  ALA24      -0.2715
     25  CB         8.4860   44.1420  113.4040 C.3    24  ALA24       0.0334
     26  N         10.3260   46.7580  112.6730 N.am   25  GLY25      -0.1940
     27  CA        10.5060   48.2090  112.5460 C.3    25  GLY25       0.2014
     28  C          9.5720   49.0220  113.4240 C.2    25  GLY25       0.2639
     29  O          9.2510   48.6090  114.5390 O.2    25  GLY25      -0.2714
     30  N          9.1510   50.1850  112.9300 N.am   26  ALA26      -0.1963
     31  CA         8.0600   50.9260  113.5570 C.3    26  ALA26       0.1728
     32  C          6.7550   50.0970  113.4760 C.2    26  ALA26       0.2617
     33  O          5.6730   50.5710  113.8580 O.2    26  ALA26      -0.2715
     34  CB         7.8840   52.3270  112.9150 C.3    26  ALA26       0.0334
     35  N          6.8570   48.8750  112.9410 N.am   27  GLY27      -0.1940
     36  CA         5.8560   47.8330  113.1780 C.3    27  GLY27       0.2014
     37  C          4.6490   47.9090  112.2800 C.2    27  GLY27       0.2639
     38  O          3.5430   47.5400  112.6960 O.2    27  GLY27      -0.2714
     39  N          4.8580   48.3610  111.0460 N.am   28  HIS28      -0.1959
     40  CA         3.7370   48.6800  110.1970 C.3    28  HIS28       0.1787
     41  C          3.0470   47.4400  109.6710 C.2    28  HIS28       0.2620
     42  O          1.8270   47.4170  109.5280 O.2    28  HIS28      -0.2715
     43  CB         4.1730   49.5980  109.0670 C.3    28  HIS28       0.0785
     44  CG         4.1300   51.0410  109.4500 C.ar   28  HIS28       0.0821
     45  ND1        5.2680   51.8060  109.6250 N.ar   28  HIS28      -0.2267
     46  CD2        3.0820   51.8450  109.7530 C.ar   28  HIS28       0.1154
     47  CE1        4.9200   53.0210  110.0090 C.ar   28  HIS28       0.1986
     48  NE2        3.6000   53.0710  110.0950 N.ar   28  HIS28      -0.2212
     49  N          3.8240   46.4090  109.3740 N.am   29  THR29      -0.1951
     50  CA         3.2500   45.1970  108.8470 C.3    29  THR29       0.1897
     51  C          2.4700   44.5920  109.9840 C.2    29  THR29       0.2313
     52  O          1.3100   44.1930  109.8180 O.2    29  THR29      -0.2863
     53  CB         4.3500   44.2440  108.3880 C.3    29  THR29       0.1794
     54  OG1        5.0870   44.8670  107.3440 O.3    29  THR29      -0.2208
     55  CG2        3.7890   42.9430  107.8780 C.3    29  THR29       0.0378
     56  N          9.4790   40.9250  116.0110 N.3    43  VAL43      -0.1231
     57  CA        10.8080   41.1330  116.5430 C.3    43  VAL43       0.1692
     58  C         11.5730   42.1140  115.6840 C.2    43  VAL43       0.2592
     59  O         11.3740   42.2050  114.4790 O.2    43  VAL43      -0.2718
     60  CB        11.6240   39.8380  116.7300 C.3    43  VAL43       0.0266
     61  CG1       10.7240   38.6490  116.6120 C.3    43  VAL43       0.0020
     62  CG2       12.7890   39.7620  115.7640 C.3    43  VAL43       0.0020
     63  N         12.4280   42.8670  116.3650 N.am   44  ASP44      -0.1960
     64  CA        13.3460   43.7800  115.7680 C.3    44  ASP44       0.1840
     65  C         14.6060   43.7660  116.6330 C.2    44  ASP44       0.2622
     66  O         14.5550   43.4760  117.8320 O.2    44  ASP44      -0.2715
     67  CB        12.7200   45.1590  115.7410 C.3    44  ASP44       0.1450
     68  CG        13.4770   46.1050  114.8630 C.2    44  ASP44       0.3671
     69  OD1       13.0210   46.3350  113.7180 O.co2  44  ASP44      -0.2456
     70  OD2       14.5350   46.5930  115.3110 O.co2  44  ASP44      -0.2456
     71  N         15.7420   44.0720  116.0320 N.am   45  ALA45      -0.1963
     72  CA        17.0000   43.9450  116.7360 C.3    45  ALA45       0.1728
     73  C         17.2080   45.1160  117.6610 C.2    45  ALA45       0.2616
     74  O         17.5850   44.9340  118.7990 O.2    45  ALA45      -0.2715
     75  CB        18.1340   43.8410  115.7700 C.3    45  ALA45       0.0334
     76  N         16.9490   46.3200  117.1780 N.am   46  THR46      -0.1951
     77  CA        17.1970   47.5420  117.9550 C.3    46  THR46       0.1897
     78  C         16.0770   47.7480  119.0080 C.2    46  THR46       0.2313
     79  O         14.8870   47.6190  118.6960 O.2    46  THR46      -0.2863
     80  CB        17.3550   48.7720  116.9860 C.3    46  THR46       0.1794
     81  OG1       16.0820   49.1630  116.4340 O.3    46  THR46      -0.2208
     82  CG2       18.3070   48.4310  115.8110 C.3    46  THR46       0.0378
     83  N         14.7910   41.0920  119.2770 N.3    69  GLY69      -0.1210
     84  CA        15.5720   39.9080  118.9740 C.3    69  GLY69       0.1956
     85  C         16.0700   40.0070  117.5630 C.2    69  GLY69       0.2613
     86  O         15.7990   40.9880  116.9020 O.2    69  GLY69      -0.2717
     87  N         16.8050   38.9880  117.1150 N.am   70  THR70      -0.1938
     88  CA        17.3320   38.8990  115.7390 C.3    70  THR70       0.2028
     89  C         16.7210   37.7120  114.9660 C.2    70  THR70       0.2642
     90  O         16.2910   36.7270  115.5800 O.2    70  THR70      -0.2714
     91  CB        18.8910   38.7560  115.7170 C.3    70  THR70       0.1808
     92  OG1       19.2930   37.6590  116.5390 O.3    70  THR70      -0.2208
     93  CG2       19.5550   40.0050  116.1900 C.3    70  THR70       0.0379
     94  N         16.7150   37.7980  113.6270 N.am   71  ALA71      -0.1963
     95  CA        16.1250   36.7530  112.7830 C.3    71  ALA71       0.1728
     96  C         16.9980   35.5020  112.7560 C.2    71  ALA71       0.2616
     97  O         16.4830   34.3970  112.6180 O.2    71  ALA71      -0.2715
     98  CB        15.8520   37.2550  111.3680 C.3    71  ALA71       0.0334
     99  N         18.3080   35.6690  112.9410 N.am   72  GLU72      -0.1977
    100  CA        19.2390   34.5320  112.9270 C.3    72  GLU72       0.1602
    101  C         19.1080   33.6640  114.1610 C.2    72  GLU72       0.2287
    102  O         19.7050   32.5930  114.2140 O.2    72  GLU72      -0.2864
    103  CB        20.6870   35.0070  112.8190 C.3    72  GLU72       0.0415
    104  CG        20.9940   35.7880  111.5500 C.3    72  GLU72       0.1163
    105  CD        20.6080   37.2700  111.6030 C.2    72  GLU72       0.3649
    106  OE1       20.0370   37.7430  112.6290 O.co2  72  GLU72      -0.2457
    107  OE2       20.8980   37.9590  110.5930 O.co2  72  GLU72      -0.2457
    108  N          9.5190   42.2250  105.7340 N.3    87  ARG87      -0.1231
    109  CA         9.3400   43.2890  104.7480 C.3    87  ARG87       0.1694
    110  C         10.4860   44.3300  104.6920 C.2    87  ARG87       0.2592
    111  O         10.7640   45.0410  105.6560 O.2    87  ARG87      -0.2718
    112  CB         8.0070   43.9890  104.9780 C.3    87  ARG87       0.0321
    113  CG         7.7310   44.9600  103.8710 C.3    87  ARG87       0.0489
    114  CD         6.3790   45.6470  103.9630 C.3    87  ARG87       0.2205
    115  NE         6.4710   46.8890  104.7310 N.pl3  87  ARG87      -0.0865
    116  CZ         5.6620   47.9410  104.5960 C.cat  87  ARG87       0.5346
    117  NH1        4.6670   47.9480  103.7030 N.pl3  87  ARG87       0.1354
    118  NH2        5.8660   49.0030  105.3690 N.pl3  87  ARG87       0.1354
    119  N         11.1440   44.4290  103.5470 N.am   88  TYR88      -0.1962
    120  CA        12.2840   45.3470  103.3980 C.3    88  TYR88       0.1771
    121  C         13.2380   45.3250  104.5980 C.2    88  TYR88       0.2619
    122  O         13.7690   46.3560  104.9910 O.2    88  TYR88      -0.2715
    123  CB        11.7890   46.7780  103.1580 C.3    88  TYR88       0.0574
    124  CG        10.9670   46.9550  101.8960 C.ar   88  TYR88      -0.0198
    125  CD1       11.5100   46.7110  100.6320 C.ar   88  TYR88      -0.0009
    126  CD2        9.6490   47.3670  101.9660 C.ar   88  TYR88      -0.0009
    127  CE1       10.7480   46.8730   99.4810 C.ar   88  TYR88       0.0417
    128  CE2        8.8840   47.5480  100.8200 C.ar   88  TYR88       0.0417
    129  CZ         9.4270   47.3040   99.5890 C.ar   88  TYR88       0.1957
    130  OH         8.6320   47.5010   98.4850 O.3    88  TYR88      -0.2866
    131  N         13.4410   44.1450  105.1740 N.am   89  ALA89      -0.1977
    132  CA        14.2810   43.9880  106.3430 C.3    89  ALA89       0.1597
    133  C         15.4430   43.0490  106.0790 C.2    89  ALA89       0.2287
    134  O         16.5090   43.2150  106.6610 O.2    89  ALA89      -0.2864
    135  CB        13.4680   43.4730  107.4610 C.3    89  ALA89       0.0319
    136  N         17.6450   42.6590  103.7030 N.3    91  HIS91      -0.1226
    137  CA        18.9200   43.1490  103.2100 C.3    91  HIS91       0.1752
    138  C         19.7660   43.7180  104.3250 C.2    91  HIS91       0.2596
    139  O         20.9120   44.1020  104.1280 O.2    91  HIS91      -0.2718
    140  CB        18.7280   44.1510  102.0950 C.3    91  HIS91       0.0759
    141  CG        17.8500   45.3100  102.4540 C.ar   91  HIS91       0.0818
    142  ND1       16.5590   45.4470  101.9830 N.ar   91  HIS91      -0.2268
    143  CD2       18.0850   46.3960  103.2250 C.ar   91  HIS91       0.1154
    144  CE1       16.0360   46.5620  102.4560 C.ar   91  HIS91       0.1986
    145  NE2       16.9380   47.1520  103.2190 N.ar   91  HIS91      -0.2212
    146  N         19.1790   43.7480  105.5120 N.am   92  HIS92      -0.1961
    147  CA        19.8440   44.1530  106.7440 C.3    92  HIS92       0.1787
    148  C         20.3300   43.0190  107.6200 C.2    92  HIS92       0.2620
    149  O         21.0730   43.2560  108.5540 O.2    92  HIS92      -0.2715
    150  CB        18.8510   44.9390  107.5950 C.3    92  HIS92       0.0785
    151  CG        18.6520   46.3340  107.1310 C.ar   92  HIS92       0.0821
    152  ND1       17.4050   46.8770  106.9330 N.ar   92  HIS92      -0.2267
    153  CD2       19.5480   47.2940  106.8070 C.ar   92  HIS92       0.1154
    154  CE1       17.5420   48.1280  106.5320 C.ar   92  HIS92       0.1986
    155  NE2       18.8330   48.4010  106.4330 N.ar   92  HIS92      -0.2212
    156  N         19.8610   41.8080  107.3850 N.am   93  PHE93      -0.1960
    157  CA        20.2410   40.7150  108.2450 C.3    93  PHE93       0.1771
    158  C         21.7110   40.4350  108.0180 C.2    93  PHE93       0.2620
    159  O         22.2130   40.6010  106.9160 O.2    93  PHE93      -0.2715
    160  CB        19.4000   39.4740  107.9540 C.3    93  PHE93       0.0574
    161  CG        17.9170   39.6600  108.1870 C.ar   93  PHE93      -0.0200
    162  CD1       17.4020   40.8110  108.8210 C.ar   93  PHE93      -0.0042
    163  CD2       17.0200   38.6590  107.7940 C.ar   93  PHE93      -0.0042
    164  CE1       16.0380   40.9490  109.0270 C.ar   93  PHE93      -0.0003
    165  CE2       15.6590   38.7970  108.0000 C.ar   93  PHE93      -0.0003
    166  CZ        15.1640   39.9390  108.6190 C.ar   93  PHE93      -0.0000
    167  N         22.4170   40.0340  109.0600 N.am   94  SER94      -0.1950
    168  CA        23.8400   39.7460  108.9160 C.3    94  SER94       0.1924
    169  C         24.0940   38.2890  108.4430 C.2    94  SER94       0.2314
    170  O         25.2270   37.9330  108.0450 O.2    94  SER94      -0.2863
    171  CB        24.5620   40.0230  110.2280 C.3    94  SER94       0.2116
    172  OG        24.2560   38.9740  111.1270 O.3    94  SER94      -0.2180
@<TRIPOS>BOND
     1   130   129    1
     2   127   129   ar
     3   127   125   ar
     4   129   128   ar
     5   125   124   ar
     6   128   126   ar
     7   124   126   ar
     8   124   123    1
     9   142   141   ar
    10   142   144   ar
    11   140   141    1
    12   140   137    1
    13   141   143   ar
    14   144   145   ar
    15   123   120    1
    16   137   136    1
    17   137   138    1
    18   145   143   ar
    19   120   119    1
    20   120   121    1
    21   119   110   am
    22   117   116    1
    23   113   114    1
    24   113   112    1
    25   114   115    1
    26   139   138    2
    27   138   146   am
    28   116   115    2
    29   116   118    1
    30   121   122    2
    31   121   131   am
    32   110   109    1
    33   110   111    2
    34   109   112    1
    35   109   108    1
    36   131   132    1
    37   146   147    1
    38   133   132    1
    39   133   134    2
    40   132   135    1
    41   155   154   ar
    42   155   153   ar
    43   154   152   ar
    44   147   150    1
    45   147   148    1
    46   153   151   ar
    47   159   158    2
    48   152   151   ar
    49   151   150    1
    50    54    53    1
    51   156   148   am
    52   156   157    1
    53   148   149    2
    54   163   165   ar
    55   163   161   ar
    56    55    53    1
    57   160   161    1
    58   160   157    1
    59   165   166   ar
    60   158   157    1
    61   158   167   am
    62   170   169    2
    63   161   162   ar
    64    53    50    1
    65   169   168    1
    66   166   164   ar
    67   162   164   ar
    68    50    49    1
    69    50    51    1
    70   168   167    1
    71   168   171    1
    72    43    44    1
    73    43    40    1
    74    49    41   am
    75    44    45   ar
    76    44    46   ar
    77    42    41    2
    78    45    47   ar
    79    41    40    1
    80    12    11    2
    81    46    48   ar
    82    52    51    2
    83     7     6   ar
    84    47    48   ar
    85    40    39    1
    86   171   172    1
    87    20    19    2
    88   107   105   ar
    89    11    10    1
    90    11    17   am
    91     6     8   ar
    92     6     5    1
    93    13    15    1
    94    13    10    1
    95    13    14    1
    96    16    14    1
    97    39    37   am
    98    19    18    1
    99    19    21   am
   100     9    10    1
   101     9     3   am
   102    18    17    1
   103    98    95    1
   104   104   105    1
   105   104   103    1
   106   105   106   ar
   107    24    23    2
   108     2     5    1
   109     2     3    1
   110     2     1    1
   111     3     4    2
   112    23    22    1
   113    23    26   am
   114    22    21    1
   115    22    25    1
   116    37    38    2
   117    37    36    1
   118    27    26    1
   119    27    28    1
   120    97    96    2
   121    96    95    1
   122    96    99   am
   123    95    94    1
   124   103   100    1
   125    34    31    1
   126   100    99    1
   127   100   101    1
   128    30    28   am
   129    30    31    1
   130    35    36    1
   131    35    32   am
   132    28    29    2
   133    32    31    1
   134    32    33    2
   135    94    89   am
   136    69    68   ar
   137   101   102    2
   138    59    58    2
   139    68    70   ar
   140    68    67    1
   141    89    90    2
   142    89    88    1
   143    58    63   am
   144    58    57    1
   145    91    88    1
   146    91    93    1
   147    91    92    1
   148    88    87    1
   149    67    64    1
   150    62    60    1
   151    64    63    1
   152    64    65    1
   153    75    72    1
   154    82    80    1
   155    56    57    1
   156    71    65   am
   157    71    72    1
   158    81    80    1
   159    57    60    1
   160    61    60    1
   161    65    66    2
   162    72    73    1
   163    86    85    2
   164    80    77    1
   165    87    85   am
   166    76    73   am
   167    76    77    1
   168    85    84    1
   169    73    74    2
   170    77    78    1
   171    79    78    2
   172    84    83    1
