@<TRIPOS>MOLECULE
tmp/2gm1C00.pdb
 171 162 0 0 0
SMALL
GASTEIGER

@<TRIPOS>ATOM
      1  N         45.5780   30.9540   89.5090 N.3    95  THR95      -0.1218
      2  CA        44.6220   31.9520   89.0520 C.3    95  THR95       0.1862
      3  C         45.2840   33.3170   88.8390 C.2    95  THR95       0.2287
      4  O         44.9310   34.0460   87.9090 O.2    95  THR95      -0.2866
      5  CB        43.4430   32.0620   90.0560 C.3    95  THR95       0.1770
      6  OG1       42.7220   30.8200   90.0530 O.3    95  THR95      -0.2211
      7  CG2       42.4750   33.1810   89.6720 C.3    95  THR95       0.0375
      8  N         44.7560   34.7650   85.1530 N.3    99  GLU99      -0.1231
      9  CA        43.8560   35.9230   85.1070 C.3    99  GLU99       0.1699
     10  C         44.4790   37.2050   85.6430 C.2    99  GLU99       0.2593
     11  O         44.3030   38.2830   85.0690 O.2    99  GLU99      -0.2718
     12  CB        42.5870   35.6190   85.9030 C.3    99  GLU99       0.0402
     13  CG        41.9580   34.2780   85.5380 C.3    99  GLU99       0.1161
     14  CD        40.6700   34.0010   86.3020 C.2    99  GLU99       0.3649
     15  OE1       40.2050   34.8910   87.0490 O.co2  99  GLU99      -0.2457
     16  OE2       40.1240   32.8890   86.1580 O.co2  99  GLU99      -0.2457
     17  N         45.1970   37.0860   86.7560 N.am  100  GLY100     -0.1942
     18  CA        45.8760   38.2360   87.3180 C.3   100  GLY100      0.2014
     19  C         44.9370   39.0590   88.1780 C.2   100  GLY100      0.2639
     20  O         43.8810   38.5740   88.5950 O.2   100  GLY100     -0.2714
     21  N         45.3200   40.3070   88.4280 N.am  101  GLU101     -0.1963
     22  CA        44.5880   41.1810   89.3280 C.3   101  GLU101      0.1733
     23  C         44.6900   42.6230   88.8650 C.2   101  GLU101      0.2616
     24  O         45.4800   42.9490   87.9810 O.2   101  GLU101     -0.2715
     25  CB        45.1530   41.0790   90.7480 C.3   101  GLU101      0.0429
     26  CG        44.7820   39.8010   91.4610 C.3   101  GLU101      0.1163
     27  CD        45.6110   39.5640   92.7090 C.2   101  GLU101      0.3649
     28  OE1       46.1400   40.5530   93.2740 O.co2 101  GLU101     -0.2457
     29  OE2       45.7340   38.3800   93.1150 O.co2 101  GLU101     -0.2457
     30  N         43.8860   43.4810   89.4820 N.am  102  ARG102     -0.1977
     31  CA        43.9690   44.9190   89.2630 C.3   102  ARG102      0.1597
     32  C         44.9510   45.4950   90.2750 C.2   102  ARG102      0.2287
     33  O         44.8800   45.1800   91.4570 O.2   102  ARG102     -0.2864
     34  CB        42.5840   45.5540   89.4650 C.3   102  ARG102      0.0334
     35  CG        42.5140   47.0280   89.1110 C.3   102  ARG102      0.0492
     36  CD        41.1990   47.6370   89.5530 C.3   102  ARG102      0.2205
     37  NE        40.0820   46.7070   89.4010 N.pl3 102  ARG102     -0.0865
     38  CZ        39.4870   46.4220   88.2430 C.cat 102  ARG102      0.5346
     39  NH1       39.9030   46.9960   87.1170 N.pl3 102  ARG102      0.1354
     40  NH2       38.4730   45.5610   88.2110 N.pl3 102  ARG102      0.1354
     41  N         42.8850   48.1960   82.3580 N.3   110  TRP110     -0.1241
     42  CA        43.2130   46.7860   82.5020 C.3   110  TRP110      0.1605
     43  C         44.1930   46.3490   81.4190 C.2   110  TRP110      0.2264
     44  O         44.9790   45.4200   81.6270 O.2   110  TRP110     -0.2867
     45  CB        41.9470   45.9300   82.4670 C.3   110  TRP110      0.0550
     46  CG        41.2110   45.9310   81.1740 C.ar  110  TRP110      0.0003
     47  CD1       40.1200   46.6920   80.8500 C.ar  110  TRP110      0.0946
     48  CD2       41.4470   45.0690   80.0530 C.ar  110  TRP110      0.0152
     49  NE1       39.6630   46.3500   79.6050 N.ar  110  TRP110     -0.2442
     50  CE2       40.4570   45.3590   79.0900 C.ar  110  TRP110      0.0810
     51  CE3       42.3940   44.0780   79.7710 C.ar  110  TRP110      0.0012
     52  CZ2       40.3890   44.6950   77.8660 C.ar  110  TRP110      0.0191
     53  CZ3       42.3230   43.4180   78.5560 C.ar  110  TRP110      0.0001
     54  CH2       41.3280   43.7320   77.6180 C.ar  110  TRP110      0.0015
     55  N         47.6840   47.1990   82.9540 N.3   113  ASP113     -0.1239
     56  CA        47.9600   46.9060   84.3530 C.3   113  ASP113      0.1674
     57  C         49.0210   45.8050   84.4290 C.2   113  ASP113      0.2266
     58  O         48.8490   44.7190   83.8790 O.2   113  ASP113     -0.2867
     59  CB        46.6780   46.4570   85.0480 C.3   113  ASP113      0.1410
     60  CG        46.8000   46.4500   86.5530 C.2   113  ASP113      0.3668
     61  OD1       45.8460   46.8990   87.2230 O.co2 113  ASP113     -0.2456
     62  OD2       47.8430   45.9910   87.0640 O.co2 113  ASP113     -0.2456
     63  N         47.9240   42.1820   85.3720 N.3   116  ALA116     -0.1245
     64  CA        47.0840   41.4010   84.4660 C.3   116  ALA116      0.1562
     65  C         47.7740   40.0800   84.1330 C.2   116  ALA116      0.2260
     66  O         48.9800   40.0470   83.9440 O.2   116  ALA116     -0.2867
     67  CB        46.8240   42.1960   83.1690 C.3   116  ALA116      0.0290
     68  N         45.1600   35.6640   80.3830 N.3   119  ILE119     -0.1231
     69  CA        43.9190   35.8150   79.6250 C.3   119  ILE119      0.1678
     70  C         43.6520   37.2460   79.1520 C.2   119  ILE119      0.2434
     71  O         43.4820   37.4760   77.9600 O.2   119  ILE119     -0.2733
     72  CB        42.7250   35.2800   80.4430 C.3   119  ILE119      0.0265
     73  CG1       42.7460   33.7400   80.4180 C.3   119  ILE119      0.0019
     74  CG2       41.4250   35.8290   79.9040 C.3   119  ILE119      0.0020
     75  CD1       41.8030   33.0580   81.4150 C.3   119  ILE119      0.0001
     76  N         43.6350   38.2330   80.0670 N.am  120  PRO120     -0.2729
     77  CA        43.4810   39.6100   79.5690 C.3   120  PRO120      0.1401
     78  C         44.5160   40.0270   78.5230 C.2   120  PRO120      0.2269
     79  O         44.1550   40.6060   77.4980 O.2   120  PRO120     -0.2865
     80  CB        43.5530   40.4790   80.8320 C.3   120  PRO120      0.0296
     81  CG        44.1400   39.6020   81.8910 C.3   120  PRO120      0.0237
     82  CD        43.7520   38.1790   81.5310 C.3   120  PRO120      0.0939
     83  N         43.7990   38.2330   75.1190 N.3   123  LEU123     -0.1245
     84  CA        42.6310   38.7760   74.4440 C.3   123  LEU123      0.1561
     85  C         42.9370   40.1560   73.8860 C.2   123  LEU123      0.2260
     86  O         42.5860   40.4560   72.7460 O.2   123  LEU123     -0.2867
     87  CB        41.4510   38.8470   75.4090 C.3   123  LEU123      0.0270
     88  CG        40.9280   37.4630   75.7940 C.3   123  LEU123      0.0019
     89  CD1       39.8010   37.5900   76.7990 C.3   123  LEU123      0.0001
     90  CD2       40.4510   36.7530   74.5490 C.3   123  LEU123      0.0001
     91  N         33.5250   29.9500   78.7310 N.3   143  LEU143     -0.1245
     92  CA        34.1140   29.6170   80.0140 C.3   143  LEU143      0.1561
     93  C         33.2740   28.5360   80.6740 C.2   143  LEU143      0.2260
     94  O         32.1480   28.7890   81.0690 O.2   143  LEU143     -0.2867
     95  CB        34.1490   30.8590   80.9080 C.3   143  LEU143      0.0270
     96  CG        34.6760   30.6870   82.3360 C.3   143  LEU143      0.0019
     97  CD1       36.1270   30.2180   82.2900 C.3   143  LEU143      0.0001
     98  CD2       34.5660   32.0120   83.0950 C.3   143  LEU143      0.0001
     99  N         35.1790   42.3660   75.7840 N.3   193  VAL193     -0.1231
    100  CA        35.8590   41.3240   76.5440 C.3   193  VAL193      0.1692
    101  C         35.6940   41.5600   78.0400 C.2   193  VAL193      0.2592
    102  O         35.3610   40.6510   78.7940 O.2   193  VAL193     -0.2718
    103  CB        37.3710   41.2960   76.2400 C.3   193  VAL193      0.0266
    104  CG1       38.0830   40.4580   77.2800 C.3   193  VAL193      0.0020
    105  CG2       37.6200   40.7260   74.8640 C.3   193  VAL193      0.0020
    106  N         35.9240   42.7940   78.4620 N.am  194  TYR194     -0.1976
    107  CA        35.9180   43.1140   79.8750 C.3   194  TYR194      0.1639
    108  C         34.5530   42.8700   80.4960 C.2   194  TYR194      0.2290
    109  O         34.4500   42.2560   81.5580 O.2   194  TYR194     -0.2864
    110  CB        36.3160   44.5730   80.0900 C.3   194  TYR194      0.0560
    111  CG        36.4290   44.9330   81.5430 C.ar  194  TYR194     -0.0198
    112  CD1       35.3240   45.3860   82.2600 C.ar  194  TYR194     -0.0009
    113  CD2       37.6360   44.7930   82.2150 C.ar  194  TYR194     -0.0009
    114  CE1       35.4260   45.6840   83.6070 C.ar  194  TYR194      0.0417
    115  CE2       37.7440   45.0900   83.5530 C.ar  194  TYR194      0.0417
    116  CZ        36.6440   45.5310   84.2460 C.ar  194  TYR194      0.1957
    117  OH        36.7640   45.8070   85.5880 O.3   194  TYR194     -0.2866
    118  N         33.5710   39.0400   80.7490 N.3   197  LEU197     -0.1231
    119  CA        34.2730   38.2970   81.7890 C.3   197  LEU197      0.1693
    120  C         33.9810   38.8430   83.1830 C.2   197  LEU197      0.2591
    121  O         34.0870   38.1230   84.1720 O.2   197  LEU197     -0.2718
    122  CB        35.7840   38.2990   81.5250 C.3   197  LEU197      0.0284
    123  CG        36.1690   37.3950   80.3460 C.3   197  LEU197      0.0019
    124  CD1       37.6790   37.3640   80.1570 C.3   197  LEU197      0.0001
    125  CD2       35.6420   35.9980   80.6220 C.3   197  LEU197      0.0001
    126  N         33.5980   40.1100   83.2620 N.am  198  GLU198     -0.1979
    127  CA        33.2050   40.6860   84.5360 C.3   198  GLU198      0.1602
    128  C         31.9350   40.0190   85.0690 C.2   198  GLU198      0.2287
    129  O         31.8310   39.7390   86.2580 O.2   198  GLU198     -0.2864
    130  CB        32.9680   42.1880   84.3910 C.3   198  GLU198      0.0415
    131  CG        32.5330   42.8640   85.6810 C.3   198  GLU198      0.1163
    132  CD        32.3750   44.3590   85.5150 C.2   198  GLU198      0.3649
    133  OE1       32.9450   45.1110   86.3340 O.co2 198  GLU198     -0.2457
    134  OE2       31.6840   44.7820   84.5630 O.co2 198  GLU198     -0.2457
    135  N         31.0890   37.0170   84.2440 N.3   200  GLY200     -0.1210
    136  CA        31.5940   35.7010   84.5840 C.3   200  GLY200      0.1956
    137  C         32.1430   35.6600   85.9980 C.2   200  GLY200      0.2611
    138  O         31.9150   34.6980   86.7290 O.2   200  GLY200     -0.2717
    139  N         32.8650   36.7050   86.3940 N.am  201  ALA201     -0.1979
    140  CA        33.4710   36.7400   87.7210 C.3   201  ALA201      0.1597
    141  C         32.3790   36.8130   88.7780 C.2   201  ALA201      0.2287
    142  O         32.4770   36.1840   89.8300 O.2   201  ALA201     -0.2864
    143  CB        34.4030   37.9450   87.8490 C.3   201  ALA201      0.0319
    144  N         30.8190   33.3460   89.2410 N.3   204  ARG204     -0.1245
    145  CA        31.7560   32.5690   90.0440 C.3   204  ARG204      0.1563
    146  C         31.5610   32.8450   91.5230 C.2   204  ARG204      0.2260
    147  O         31.5340   31.9280   92.3420 O.2   204  ARG204     -0.2867
    148  CB        33.1900   32.9440   89.6980 C.3   204  ARG204      0.0307
    149  CG        33.8950   32.0010   88.7850 C.3   204  ARG204      0.0489
    150  CD        35.3580   32.3740   88.7450 C.3   204  ARG204      0.2205
    151  NE        36.0440   31.7400   87.6310 N.pl3 204  ARG204     -0.0865
    152  CZ        37.1650   32.2020   87.0960 C.cat 204  ARG204      0.5346
    153  NH1       37.7210   33.3070   87.5790 N.pl3 204  ARG204      0.1354
    154  NH2       37.7310   31.5570   86.0880 N.pl3 204  ARG204      0.1354
    155  N         38.6610   25.1760   85.7190 N.3   220  SER220     -0.1217
    156  CA        38.1460   26.2400   84.8640 C.3   220  SER220      0.1889
    157  C         38.7440   26.1150   83.4620 C.2   220  SER220      0.2288
    158  O         39.9590   26.0670   83.3050 O.2   220  SER220     -0.2866
    159  CB        38.4970   27.5960   85.4910 C.3   220  SER220      0.2089
    160  OG        37.9160   28.6570   84.7750 O.3   220  SER220     -0.2183
    161  N         38.8000   28.0310   79.9120 N.3   222  PHE222     -0.1241
    162  CA        38.4890   29.2040   79.1050 C.3   222  PHE222      0.1605
    163  C         38.9890   28.9630   77.6870 C.2   222  PHE222      0.2264
    164  O         40.1490   28.6250   77.4860 O.2   222  PHE222     -0.2867
    165  CB        39.1670   30.4490   79.6900 C.3   222  PHE222      0.0534
    166  CG        38.9020   31.7030   78.9090 C.ar  222  PHE222     -0.0203
    167  CD1       39.7220   32.0680   77.8620 C.ar  222  PHE222     -0.0042
    168  CD2       37.8140   32.5010   79.2090 C.ar  222  PHE222     -0.0042
    169  CE1       39.4620   33.2080   77.1260 C.ar  222  PHE222     -0.0003
    170  CE2       37.5480   33.6400   78.4760 C.ar  222  PHE222     -0.0003
    171  CZ        38.3740   33.9940   77.4340 C.ar  222  PHE222     -0.0000
@<TRIPOS>BOND
     1    86    85    2
     2    85    84    1
     3    84    83    1
     4    84    87    1
     5    90    88    1
     6   105   103    1
     7    87    88    1
     8    99   100    1
     9    88    89    1
    10   103   100    1
    11   103   104    1
    12   100   101    1
    13   169   171   ar
    14   169   167   ar
    15   171   170   ar
    16   164   163    2
    17    79    78    2
    18    54    52   ar
    19    54    53   ar
    20   163   162    1
    21   167   166   ar
    22    52    50   ar
    23    71    70    2
    24   101   106   am
    25   101   102    2
    26   106   107    1
    27   170   168   ar
    28    78    77    1
    29    53    51   ar
    30    91    92    1
    31   166   168   ar
    32   166   165    1
    33    50    49   ar
    34    50    48   ar
    35   162   165    1
    36   162   161    1
    37    70    69    1
    38    70    76   am
    39    77    76    1
    40    77    80    1
    41    49    47   ar
    42    69    68    1
    43    69    72    1
    44    51    48   ar
    45   107   110    1
    46   107   108    1
    47    74    72    1
    48    92    93    1
    49    92    95    1
    50    48    46   ar
    51    76    82    1
    52   110   111    1
    53   124   123    1
    54   123   125    1
    55   123   122    1
    56    73    72    1
    57    73    75    1
    58   108   109    2
    59    93    94    2
    60   118   119    1
    61    80    81    1
    62    47    46   ar
    63    95    96    1
    64    46    45    1
    65    43    44    2
    66    43    42    1
    67   122   119    1
    68    82    81    1
    69   111   113   ar
    70   111   112   ar
    71   119   120    1
    72   113   115   ar
    73   112   114   ar
    74    97    96    1
    75    96    98    1
    76    41    42    1
    77    45    42    1
    78    55    56    1
    79    67    64    1
    80   120   126   am
    81   120   121    2
    82   126   127    1
    83   158   157    2
    84   157   156    1
    85   115   116   ar
    86   114   116   ar
    87    58    57    2
    88    66    65    2
    89    65    64    1
    90   135   136    1
    91   116   117    1
    92    56    57    1
    93    56    59    1
    94   130   127    1
    95   130   131    1
    96    64    63    1
    97   127   128    1
    98   134   132   ar
    99   136   137    1
   100   160   159    1
   101   156   159    1
   102   156   155    1
   103    59    60    1
   104   128   129    2
   105    11    10    2
   106     9     8    1
   107     9    10    1
   108     9    12    1
   109   132   131    1
   110   132   133   ar
   111    13    12    1
   112    13    14    1
   113    10    17   am
   114   137   139   am
   115   137   138    2
   116   154   152    1
   117    16    14   ar
   118    14    15   ar
   119   139   140    1
   120    60    62   ar
   121    60    61   ar
   122    17    18    1
   123   152   153    1
   124   152   151    2
   125    39    38    1
   126    18    19    1
   127   151   150    1
   128   140   143    1
   129   140   141    1
   130     4     3    2
   131    24    23    2
   132    19    21   am
   133    19    20    2
   134    40    38    1
   135    38    37    2
   136    21    22    1
   137   150   149    1
   138   141   142    2
   139   149   148    1
   140     3     2    1
   141    23    22    1
   142    23    30   am
   143     2     1    1
   144     2     5    1
   145    35    34    1
   146    35    36    1
   147   144   145    1
   148    31    34    1
   149    31    30    1
   150    31    32    1
   151    22    25    1
   152    37    36    1
   153     7     5    1
   154   148   145    1
   155   145   146    1
   156     6     5    1
   157    32    33    2
   158    25    26    1
   159    26    27    1
   160   146   147    2
   161    27    29   ar
   162    27    28   ar
