@<TRIPOS>MOLECULE
tmp/2gm1B00.pdb
 171 162 0 0 0
SMALL
GASTEIGER

@<TRIPOS>ATOM
      1  N         47.3610   45.0880    6.5200 N.3    96  THR96      -0.1218
      2  CA        46.4150   44.1360    7.0790 C.3    96  THR96       0.1862
      3  C         47.0500   42.7570    7.2900 C.2    96  THR96       0.2287
      4  O         46.7530   42.0630    8.2690 O.2    96  THR96      -0.2866
      5  CB        45.1680   44.0230    6.1690 C.3    96  THR96       0.1770
      6  OG1       44.4860   45.2820    6.1530 O.3    96  THR96      -0.2211
      7  CG2       44.2160   42.9660    6.6770 C.3    96  THR96       0.0375
      8  N         46.7790   41.4390   11.0690 N.3   100  GLU100     -0.1231
      9  CA        45.8360   40.3300   11.2250 C.3   100  GLU100      0.1699
     10  C         46.3960   39.0150   10.6910 C.2   100  GLU100      0.2593
     11  O         46.2450   37.9600   11.3130 O.2   100  GLU100     -0.2718
     12  CB        44.5240   40.6540   10.4980 C.3   100  GLU100      0.0402
     13  CG        43.9620   42.0220   10.8470 C.3   100  GLU100      0.1161
     14  CD        42.6490   42.3240   10.1570 C.2   100  GLU100      0.3649
     15  OE1       42.0790   41.4240    9.4850 O.co2 100  GLU100     -0.2457
     16  OE2       42.1880   43.4740   10.2950 O.co2 100  GLU100     -0.2457
     17  N         47.0290   39.0750    9.5240 N.am  101  GLY101     -0.1942
     18  CA        47.6270   37.8850    8.9570 C.3   101  GLY101      0.2014
     19  C         46.6040   37.0600    8.2050 C.2   101  GLY101      0.2639
     20  O         45.5410   37.5620    7.8450 O.2   101  GLY101     -0.2714
     21  N         46.9260   35.7920    7.9790 N.am  102  GLU102     -0.1963
     22  CA        46.1030   34.9150    7.1570 C.3   102  GLU102      0.1733
     23  C         46.2000   33.4870    7.6590 C.2   102  GLU102      0.2616
     24  O         47.0510   33.1640    8.4850 O.2   102  GLU102     -0.2715
     25  CB        46.5650   34.9500    5.6940 C.3   102  GLU102      0.0429
     26  CG        46.1920   36.2190    4.9690 C.3   102  GLU102      0.1163
     27  CD        46.9310   36.3870    3.6560 C.2   102  GLU102      0.3649
     28  OE1       47.4100   35.3700    3.1000 O.co2 102  GLU102     -0.2457
     29  OE2       47.0310   37.5520    3.1910 O.co2 102  GLU102     -0.2457
     30  N         45.3290   32.6350    7.1340 N.am  103  ARG103     -0.1977
     31  CA        45.3990   31.2010    7.3910 C.3   103  ARG103      0.1597
     32  C         46.3030   30.5630    6.3350 C.2   103  ARG103      0.2287
     33  O         46.1790   30.8480    5.1470 O.2   103  ARG103     -0.2864
     34  CB        43.9900   30.5960    7.3080 C.3   103  ARG103      0.0334
     35  CG        43.9080   29.1330    7.7100 C.3   103  ARG103      0.0492
     36  CD        42.5400   28.5490    7.3950 C.3   103  ARG103      0.2205
     37  NE        41.4610   29.5190    7.5870 N.pl3 103  ARG103     -0.0865
     38  CZ        40.9630   29.8690    8.7730 C.cat 103  ARG103      0.5346
     39  NH1       41.4470   29.3290    9.8890 N.pl3 103  ARG103      0.1354
     40  NH2       39.9790   30.7600    8.8450 N.pl3 103  ARG103      0.1354
     41  N         44.7120   28.2180   14.4950 N.3   111  TRP111     -0.1241
     42  CA        45.0670   29.6120   14.2750 C.3   111  TRP111      0.1605
     43  C         46.1330   30.0600   15.2770 C.2   111  TRP111      0.2264
     44  O         46.9260   30.9610   14.9970 O.2   111  TRP111     -0.2867
     45  CB        43.8310   30.5080   14.3640 C.3   111  TRP111      0.0550
     46  CG        43.1870   30.5660   15.7040 C.ar  111  TRP111      0.0003
     47  CD1       42.1130   29.8360   16.1340 C.ar  111  TRP111      0.0946
     48  CD2       43.5250   31.4520   16.7800 C.ar  111  TRP111      0.0152
     49  NE1       41.7610   30.2190   17.4070 N.ar  111  TRP111     -0.2442
     50  CE2       42.6100   31.2110   17.8250 C.ar  111  TRP111      0.0810
     51  CE3       44.5100   32.4290   16.9590 C.ar  111  TRP111      0.0012
     52  CZ2       42.6480   31.9120   19.0300 C.ar  111  TRP111      0.0191
     53  CZ3       44.5500   33.1230   18.1520 C.ar  111  TRP111      0.0001
     54  CH2       43.6230   32.8620   19.1750 C.ar  111  TRP111      0.0015
     55  N         49.4780   29.0280   13.5100 N.3   114  ASP114     -0.1239
     56  CA        49.6640   29.2720   12.0850 C.3   114  ASP114      0.1674
     57  C         50.7410   30.3360   11.9030 C.2   114  ASP114      0.2266
     58  O         50.6340   31.4360   12.4400 O.2   114  ASP114     -0.2867
     59  CB        48.3510   29.7460   11.4650 C.3   114  ASP114      0.1410
     60  CG        48.3670   29.6810    9.9560 C.2   114  ASP114      0.3668
     61  OD1       47.3540   29.2310    9.3750 O.co2 114  ASP114     -0.2456
     62  OD2       49.3930   30.0800    9.3560 O.co2 114  ASP114     -0.2456
     63  N         49.7340   33.9710   10.9090 N.3   117  ALA117     -0.1245
     64  CA        48.9540   34.7990   11.8200 C.3   117  ALA117      0.1562
     65  C         49.7040   36.1050   12.0650 C.2   117  ALA117      0.2260
     66  O         50.9240   36.1030   12.1760 O.2   117  ALA117     -0.2867
     67  CB        48.7370   34.0620   13.1380 C.3   117  ALA117      0.0290
     68  N         47.4630   40.7410   15.8290 N.3   120  ILE120     -0.1231
     69  CA        46.2770   40.6370   16.6660 C.3   120  ILE120      0.1678
     70  C         46.0190   39.2260   17.2100 C.2   120  ILE120      0.2434
     71  O         45.9390   39.0350   18.4240 O.2   120  ILE120     -0.2733
     72  CB        45.0410   41.1680   15.9120 C.3   120  ILE120      0.0265
     73  CG1       45.0860   42.7090   15.8910 C.3   120  ILE120      0.0019
     74  CG2       43.7750   40.6540   16.5680 C.3   120  ILE120      0.0020
     75  CD1       44.1000   43.3710   14.9040 C.3   120  ILE120      0.0001
     76  N         45.9190   38.2150   16.3340 N.am  121  PRO121     -0.2729
     77  CA        45.7510   36.8650   16.8960 C.3   121  PRO121      0.1401
     78  C         46.8440   36.4690   17.8860 C.2   121  PRO121      0.2269
     79  O         46.5500   35.9510   18.9650 O.2   121  PRO121     -0.2865
     80  CB        45.7270   35.9440   15.6650 C.3   121  PRO121      0.0296
     81  CG        46.2480   36.7760   14.5310 C.3   121  PRO121      0.0237
     82  CD        45.9370   38.2140   14.8620 C.3   121  PRO121      0.0939
     83  N         46.4050   38.3780   21.2530 N.3   124  LEU124     -0.1245
     84  CA        45.2680   37.9060   22.0260 C.3   124  LEU124      0.1561
     85  C         45.5820   36.5430   22.6200 C.2   124  LEU124      0.2260
     86  O         45.3050   36.2950   23.7920 O.2   124  LEU124     -0.2867
     87  CB        44.0170   37.8310   21.1410 C.3   124  LEU124      0.0270
     88  CG        43.5150   39.2220   20.7340 C.3   124  LEU124      0.0019
     89  CD1       42.3150   39.1050   19.8070 C.3   124  LEU124      0.0001
     90  CD2       43.1460   39.9980   21.9850 C.3   124  LEU124      0.0001
     91  N         36.1050   46.8380   18.0520 N.3   144  LEU144     -0.1245
     92  CA        36.6090   47.1160   16.7200 C.3   144  LEU144      0.1561
     93  C         35.7610   48.2060   16.0740 C.2   144  LEU144      0.2260
     94  O         34.5970   47.9810   15.7380 O.2   144  LEU144     -0.2867
     95  CB        36.5430   45.8520   15.8660 C.3   144  LEU144      0.0270
     96  CG        36.9900   45.9570   14.4090 C.3   144  LEU144      0.0019
     97  CD1       38.4500   46.3680   14.3500 C.3   144  LEU144      0.0001
     98  CD2       36.7960   44.6030   13.7130 C.3   144  LEU144      0.0001
     99  N         37.6640   34.4710   21.3570 N.3   194  VAL194     -0.1231
    100  CA        38.3190   35.4620   20.5050 C.3   194  VAL194      0.1692
    101  C         38.0320   35.1870   19.0340 C.2   194  VAL194      0.2592
    102  O         37.6670   36.0800   18.2770 O.2   194  VAL194     -0.2718
    103  CB        39.8530   35.4490   20.6950 C.3   194  VAL194      0.0266
    104  CG1       40.5160   36.2350   19.5760 C.3   194  VAL194      0.0020
    105  CG2       40.2220   36.0640   22.0380 C.3   194  VAL194      0.0020
    106  N         38.1980   33.9350   18.6380 N.am  195  TYR195     -0.1976
    107  CA        38.0750   33.5650   17.2410 C.3   195  TYR195      0.1639
    108  C         36.6760   33.8170   16.6980 C.2   195  TYR195      0.2290
    109  O         36.5170   34.3930   15.6180 O.2   195  TYR195     -0.2864
    110  CB        38.4300   32.0930   17.0540 C.3   195  TYR195      0.0560
    111  CG        38.4310   31.6740   15.6090 C.ar  195  TYR195     -0.0198
    112  CD1       37.2670   31.2330   14.9890 C.ar  195  TYR195     -0.0009
    113  CD2       39.5890   31.7540   14.8520 C.ar  195  TYR195     -0.0009
    114  CE1       37.2630   30.8900   13.6470 C.ar  195  TYR195      0.0417
    115  CE2       39.5970   31.4140   13.5230 C.ar  195  TYR195      0.0417
    116  CZ        38.4370   30.9860   12.9190 C.ar  195  TYR195      0.1957
    117  OH        38.4510   30.6840   11.5760 O.3   195  TYR195     -0.2866
    118  N         35.7870   37.6580   16.3820 N.3   198  LEU198     -0.1231
    119  CA        36.4390   38.3460   15.2770 C.3   198  LEU198      0.1693
    120  C         36.0660   37.7740   13.9200 C.2   198  LEU198      0.2591
    121  O         36.1580   38.4670   12.9060 O.2   198  LEU198     -0.2718
    122  CB        37.9600   38.3130   15.4550 C.3   198  LEU198      0.0284
    123  CG        38.4610   39.2600   16.5530 C.3   198  LEU198      0.0019
    124  CD1       39.9700   39.2300   16.6240 C.3   198  LEU198      0.0001
    125  CD2       37.9670   40.6750   16.2520 C.3   198  LEU198      0.0001
    126  N         35.6470   36.5140   13.8990 N.am  199  GLU199     -0.1979
    127  CA        35.1230   35.9160   12.6810 C.3   199  GLU199      0.1602
    128  C         33.8440   36.6320   12.2510 C.2   199  GLU199      0.2287
    129  O         33.6130   36.8420   11.0640 O.2   199  GLU199     -0.2864
    130  CB        34.8320   34.4320   12.9040 C.3   199  GLU199      0.0415
    131  CG        34.2950   33.7180   11.6700 C.3   199  GLU199      0.1163
    132  CD        34.1050   32.2350   11.9020 C.2   199  GLU199      0.3649
    133  OE1       34.6000   31.4360   11.0720 O.co2 199  GLU199     -0.2457
    134  OE2       33.4660   31.8690   12.9170 O.co2 199  GLU199     -0.2457
    135  N         33.1830   39.6830   13.0460 N.3   201  GLY201     -0.1210
    136  CA        33.6690   40.9660   12.5810 C.3   201  GLY201      0.1956
    137  C         34.1140   40.9320   11.1270 C.2   201  GLY201      0.2611
    138  O         33.8710   41.8780   10.3770 O.2   201  GLY201     -0.2717
    139  N         34.7630   39.8460   10.7200 N.am  202  ALA202     -0.1979
    140  CA        35.2530   39.7250    9.3530 C.3   202  ALA202      0.1597
    141  C         34.0850   39.6590    8.3860 C.2   202  ALA202      0.2287
    142  O         34.1200   40.2610    7.3120 O.2   202  ALA202     -0.2864
    143  CB        36.1220   38.4800    9.2040 C.3   202  ALA202      0.0319
    144  N         32.6010   43.1550    7.9030 N.3   205  ARG205     -0.1245
    145  CA        33.4970   43.8760    7.0010 C.3   205  ARG205      0.1563
    146  C         33.1790   43.5490    5.5520 C.2   205  ARG205      0.2260
    147  O         33.0920   44.4350    4.7040 O.2   205  ARG205     -0.2867
    148  CB        34.9400   43.4710    7.2550 C.3   205  ARG205      0.0307
    149  CG        35.7340   44.4190    8.0890 C.3   205  ARG205      0.0489
    150  CD        37.1880   44.0070    8.0340 C.3   205  ARG205      0.2205
    151  NE        37.9730   44.6740    9.0600 N.pl3 205  ARG205     -0.0865
    152  CZ        39.1150   44.2010    9.5390 C.cat 205  ARG205      0.5346
    153  NH1       39.6060   43.0560    9.0810 N.pl3 205  ARG205      0.1354
    154  NH2       39.7580   44.8690   10.4820 N.pl3 205  ARG205      0.1354
    155  N         40.8740   51.2200   10.5760 N.3   221  SER221     -0.1217
    156  CA        40.4040   50.2000   11.4970 C.3   221  SER221      0.1889
    157  C         41.1000   50.3400   12.8450 C.2   221  SER221      0.2288
    158  O         42.3250   50.3360   12.9240 O.2   221  SER221     -0.2866
    159  CB        40.6670   48.8190   10.9010 C.3   221  SER221      0.2089
    160  OG        40.1290   47.8090   11.7280 O.3   221  SER221     -0.2183
    161  N         41.3460   48.5480   16.4190 N.3   223  PHE223     -0.1241
    162  CA        41.0690   47.4260   17.3050 C.3   223  PHE223      0.1605
    163  C         41.6670   47.7090   18.6730 C.2   223  PHE223      0.2264
    164  O         42.8530   48.0190   18.7830 O.2   223  PHE223     -0.2867
    165  CB        41.6720   46.1420   16.7300 C.3   223  PHE223      0.0534
    166  CG        41.4240   44.9280   17.5730 C.ar  223  PHE223     -0.0203
    167  CD1       42.3100   44.5700   18.5740 C.ar  223  PHE223     -0.0042
    168  CD2       40.2940   44.1510   17.3770 C.ar  223  PHE223     -0.0042
    169  CE1       42.0730   43.4620   19.3600 C.ar  223  PHE223     -0.0003
    170  CE2       40.0530   43.0440   18.1660 C.ar  223  PHE223     -0.0003
    171  CZ        40.9470   42.7020   19.1580 C.ar  223  PHE223     -0.0000
@<TRIPOS>BOND
     1    28    27   ar
     2    29    27   ar
     3    27    26    1
     4   147   146    2
     5    26    25    1
     6    33    32    2
     7   146   145    1
     8    25    22    1
     9     6     5    1
    10     5     7    1
    11     5     2    1
    12    32    31    1
    13     1     2    1
    14   145   148    1
    15   145   144    1
    16     2     3    1
    17    30    31    1
    18    30    23   am
    19    22    23    1
    20    22    21    1
    21   148   149    1
    22     3     4    2
    23    34    31    1
    24    34    35    1
    25   142   141    2
    26    36    37    1
    27    36    35    1
    28    37    38    2
    29    23    24    2
    30    20    19    2
    31    21    19   am
    32   150   149    1
    33   150   151    1
    34    19    18    1
    35   141   140    1
    36    38    40    1
    37    38    39    1
    38    18    17    1
    39   151   152    2
    40   153   152    1
    41   143   140    1
    42   140   139    1
    43    62    60   ar
    44    61    60   ar
    45    15    14   ar
    46    17    10   am
    47   152   154    1
    48    60    59    1
    49    14    16   ar
    50    14    13    1
    51   138   137    2
    52    12    13    1
    53    12     9    1
    54   155   156    1
    55    10     9    1
    56    10    11    2
    57   139   137   am
    58   159   156    1
    59   159   160    1
    60    63    64    1
    61   129   128    2
    62     8     9    1
    63   133   132   ar
    64   137   136    1
    65    59    56    1
    66   156   157    1
    67   117   116    1
    68   131   132    1
    69   131   130    1
    70    64    65    1
    71    64    67    1
    72   132   134   ar
    73    57    56    1
    74    57    58    2
    75    65    66    2
    76    56    55    1
    77   128   127    1
    78   136   135    1
    79   127   130    1
    80   127   126    1
    81   157   158    2
    82   121   120    2
    83   116   115   ar
    84   116   114   ar
    85   115   113   ar
    86   114   112   ar
    87    98    96    1
    88   126   120   am
    89   120   119    1
    90    42    45    1
    91    42    41    1
    92    42    43    1
    93    97    96    1
    94    45    46    1
    95    96    95    1
    96    81    82    1
    97    81    80    1
    98   113   111   ar
    99    82    76    1
   100    75    73    1
   101   112   111   ar
   102    44    43    2
   103   119   122    1
   104   119   118    1
   105   122   123    1
   106   111   110    1
   107   109   108    2
   108    80    77    1
   109    46    47   ar
   110    46    48   ar
   111    94    93    2
   112    68    69    1
   113    95    92    1
   114    73    72    1
   115    72    74    1
   116    72    69    1
   117    93    92    1
   118    47    49   ar
   119   125   123    1
   120    76    77    1
   121    76    70   am
   122   161   162    1
   123   123   124    1
   124    69    70    1
   125   108   107    1
   126    92    91    1
   127   165   162    1
   128   165   166    1
   129    48    51   ar
   130    48    50   ar
   131    77    78    1
   132    51    53   ar
   133   110   107    1
   134    70    71    2
   135   107   106    1
   136   162   163    1
   137   168   166   ar
   138   168   170   ar
   139    49    50   ar
   140   166   167   ar
   141    50    52   ar
   142    78    79    2
   143    53    54   ar
   144   170   171   ar
   145   102   101    2
   146   167   169   ar
   147   106   101   am
   148   163   164    2
   149    52    54   ar
   150   101   100    1
   151   171   169   ar
   152   104   103    1
   153    89    88    1
   154   100   103    1
   155   100    99    1
   156   103   105    1
   157    88    87    1
   158    88    90    1
   159    87    84    1
   160    83    84    1
   161    84    85    1
   162    85    86    2
