@<TRIPOS>MOLECULE
tmp/2gm3C00.pdb
 141 133 0 0 0
SMALL
GASTEIGER

@<TRIPOS>ATOM
      1  N         -6.9580  -11.0470   40.2470 N.3     6  ALA6       -0.1231
      2  CA        -5.7690  -10.4660   40.8750 C.3     6  ALA6        0.1694
      3  C         -4.6730  -11.5310   40.9070 C.2     6  ALA6        0.2592
      4  O         -4.8490  -12.6130   41.4720 O.2     6  ALA6       -0.2718
      5  CB        -6.0660   -9.9290   42.2870 C.3     6  ALA6        0.0304
      6  N         -3.5520  -11.2340   40.2680 N.am    7  VAL7       -0.1966
      7  CA        -2.4900  -12.2130   40.1670 C.3     7  VAL7        0.1727
      8  C         -1.2020  -11.7100   40.7530 C.2     7  VAL7        0.2616
      9  O         -0.8800  -10.5130   40.6790 O.2     7  VAL7       -0.2715
     10  CB        -2.2610  -12.6380   38.7180 C.3     7  VAL7        0.0290
     11  CG1       -3.5800  -13.2180   38.1510 C.3     7  VAL7        0.0023
     12  CG2       -1.7480  -11.4560   37.8890 C.3     7  VAL7        0.0023
     13  N         -0.4580  -12.6260   41.3530 N.am    8  ASN8       -0.1972
     14  CA         0.7970  -12.2600   41.9600 C.3     8  ASN8        0.1688
     15  C          1.8290  -13.3770   41.7800 C.2     8  ASN8        0.2292
     16  O          1.5000  -14.4630   41.3050 O.2     8  ASN8       -0.2864
     17  CB         0.6000  -11.8700   43.4150 C.3     8  ASN8        0.1181
     18  CG         0.2040  -13.0290   44.2660 C.2     8  ASN8        0.2629
     19  OD1       -0.6190  -13.8700   43.8510 O.2     8  ASN8       -0.2716
     20  ND2        0.7980  -13.1190   45.4630 N.am    8  ASN8       -0.0877
     21  N         -1.8500  -19.9500   44.4590 N.3    21  SER21      -0.1202
     22  CA        -3.2180  -19.5560   44.7220 C.3    21  SER21       0.2020
     23  C         -3.8570  -18.7800   43.5860 C.2    21  SER21       0.2619
     24  O         -4.9940  -19.0240   43.2320 O.2    21  SER21      -0.2717
     25  CB        -3.3310  -18.8190   46.0670 C.3    21  SER21       0.2103
     26  OG        -2.7910  -17.5240   46.0000 O.3    21  SER21      -0.2182
     27  N         -3.1230  -17.8600   42.9860 N.am   22  CYS22      -0.1969
     28  CA        -3.7340  -17.0660   41.9200 C.3    22  CYS22       0.1712
     29  C         -3.7990  -17.8690   40.6300 C.2    22  CYS22       0.2296
     30  O         -4.6880  -17.6530   39.8220 O.2    22  CYS22      -0.2864
     31  CB        -3.0300  -15.7120   41.7310 C.3    22  CYS22       0.0983
     32  SG        -1.5340  -15.7350   40.7550 S.3    22  CYS22      -0.0798
     33  N         -4.9630   -8.1320   36.8530 N.3    46  LEU46      -0.1231
     34  CA        -4.3580   -7.0660   37.5950 C.3    46  LEU46       0.1693
     35  C         -3.2630   -7.6060   38.4690 C.2    46  LEU46       0.2592
     36  O         -3.5230   -8.4880   39.2950 O.2    46  LEU46      -0.2718
     37  CB        -5.4190   -6.3460   38.4370 C.3    46  LEU46       0.0284
     38  CG        -4.8890   -5.3290   39.4400 C.3    46  LEU46       0.0019
     39  CD1       -4.1030   -4.1480   38.8010 C.3    46  LEU46       0.0001
     40  CD2       -6.0370   -4.8270   40.2590 C.3    46  LEU46       0.0001
     41  N         -2.0480   -7.0900   38.2940 N.am   47  HIS47      -0.1962
     42  CA        -0.9750   -7.3810   39.2300 C.3    47  HIS47       0.1787
     43  C         -0.6080   -6.1110   39.9550 C.2    47  HIS47       0.2620
     44  O         -0.3960   -5.0760   39.3440 O.2    47  HIS47      -0.2715
     45  CB         0.2500   -7.9730   38.5370 C.3    47  HIS47       0.0785
     46  CG         1.4380   -8.0870   39.4340 C.ar   47  HIS47       0.0821
     47  ND1        1.4540   -8.8940   40.5500 N.ar   47  HIS47      -0.2267
     48  CD2        2.6440   -7.4770   39.3990 C.ar   47  HIS47       0.1154
     49  CE1        2.6280   -8.7890   41.1510 C.ar   47  HIS47       0.1986
     50  NE2        3.3710   -7.9470   40.4650 N.ar   47  HIS47      -0.2212
     51  N         -0.5170   -6.1890   41.2640 N.am   48  VAL48      -0.1977
     52  CA        -0.1070   -5.0300   42.0210 C.3    48  VAL48       0.1596
     53  C          1.3310   -5.1800   42.4700 C.2    48  VAL48       0.2287
     54  O          1.7070   -6.1530   43.1070 O.2    48  VAL48      -0.2864
     55  CB        -1.0310   -4.7110   43.1930 C.3    48  VAL48       0.0276
     56  CG1       -0.5770   -3.3800   43.8410 C.3    48  VAL48       0.0022
     57  CG2       -2.4550   -4.6020   42.7030 C.3    48  VAL48       0.0022
     58  N          4.6280   -3.9200   44.5480 N.3    50  VAL50      -0.1245
     59  CA         5.0430   -3.1240   45.7210 C.3    50  VAL50       0.1561
     60  C          6.3720   -2.4330   45.4860 C.2    50  VAL50       0.2260
     61  O          6.5210   -1.7330   44.4950 O.2    50  VAL50      -0.2867
     62  CB         5.0600   -3.9140   47.0620 C.3    50  VAL50       0.0252
     63  CG1        4.9370   -2.9250   48.2410 C.3    50  VAL50       0.0019
     64  CG2        3.9390   -4.9530   47.1160 C.3    50  VAL50       0.0019
     65  N         -1.2390   -3.9230   47.7140 N.3    96  PRO96      -0.2116
     66  CA        -2.0630   -4.7790   46.8560 C.3    96  PRO96       0.1372
     67  C         -3.5440   -4.7670   47.2180 C.2    96  PRO96       0.2244
     68  O         -4.3710   -4.5470   46.3320 O.2    96  PRO96      -0.2868
     69  CB        -1.4760   -6.1730   47.0690 C.3    96  PRO96       0.0268
     70  CG        -0.0840   -5.9350   47.4640 C.3    96  PRO96       0.0207
     71  CD        -0.0520   -4.6340   48.2240 C.3    96  PRO96       0.0892
     72  N         -6.2270   -3.2140   44.5920 N.3   100  ILE100     -0.1245
     73  CA        -7.2220   -4.0710   43.9860 C.3   100  ILE100      0.1561
     74  C         -8.6060   -3.4780   44.1650 C.2   100  ILE100      0.2260
     75  O         -9.3690   -3.3820   43.1910 O.2   100  ILE100     -0.2867
     76  CB        -7.1600   -5.4800   44.5430 C.3   100  ILE100      0.0252
     77  CG1       -5.8940   -6.1570   44.0280 C.3   100  ILE100      0.0019
     78  CG2       -8.4230   -6.2460   44.1710 C.3   100  ILE100      0.0019
     79  CD1       -5.4940   -7.3250   44.8490 C.3   100  ILE100      0.0001
     80  N        -10.0160  -13.7220   43.3490 N.3   114  VAL114     -0.1231
     81  CA        -8.7520  -13.7580   44.0910 C.3   114  VAL114      0.1692
     82  C         -8.5460  -15.1800   44.5290 C.2   114  VAL114      0.2592
     83  O         -9.5170  -15.8780   44.8560 O.2   114  VAL114     -0.2718
     84  CB        -8.7400  -12.7850   45.3190 C.3   114  VAL114      0.0266
     85  CG1       -8.8140  -11.3710   44.8590 C.3   114  VAL114      0.0020
     86  CG2       -9.8800  -13.0840   46.2850 C.3   114  VAL114      0.0020
     87  N         -7.3020  -15.6380   44.4770 N.am  115  GLY115     -0.1957
     88  CA        -6.9060  -16.8660   45.1500 C.3   115  GLY115      0.1869
     89  C         -6.9240  -16.5720   46.6400 C.2   115  GLY115      0.2309
     90  O         -7.1770  -15.4520   47.0370 O.2   115  GLY115     -0.2863
     91  N         -4.9300  -18.1670   50.4020 N.3   117  ARG117     -0.1231
     92  CA        -4.1250  -19.1890   51.0560 C.3   117  ARG117      0.1694
     93  C         -4.9120  -19.7870   52.2370 C.2   117  ARG117      0.2593
     94  O         -4.5130  -20.7870   52.8120 O.2   117  ARG117     -0.2718
     95  CB        -2.7760  -18.5990   51.4920 C.3   117  ARG117      0.0321
     96  CG        -1.8250  -18.2100   50.3330 C.3   117  ARG117      0.0489
     97  CD        -0.6640  -17.3500   50.8430 C.3   117  ARG117      0.2205
     98  NE        -1.1230  -16.0230   51.2370 N.pl3 117  ARG117     -0.0865
     99  CZ        -0.5300  -15.2240   52.1350 C.cat 117  ARG117      0.5346
    100  NH1        0.5790  -15.5940   52.7670 N.pl3 117  ARG117      0.1354
    101  NH2       -1.0730  -14.0420   52.4080 N.pl3 117  ARG117      0.1354
    102  N         -6.0430  -19.1620   52.5700 N.am  118  GLY118     -0.1942
    103  CA        -6.9330  -19.6160   53.6240 C.3   118  GLY118      0.2014
    104  C         -6.3860  -19.4230   55.0240 C.2   118  GLY118      0.2638
    105  O         -6.6440  -20.2280   55.8860 O.2   118  GLY118     -0.2714
    106  N         -5.6540  -18.3430   55.2620 N.am  119  LEU119     -0.1977
    107  CA        -5.0080  -18.1160   56.5430 C.3   119  LEU119      0.1596
    108  C         -5.9050  -17.6160   57.6830 C.2   119  LEU119      0.2287
    109  O         -5.5760  -16.6390   58.3430 O.2   119  LEU119     -0.2864
    110  CB        -3.8220  -17.1650   56.3750 C.3   119  LEU119      0.0297
    111  CG        -2.5300  -17.8150   55.9010 C.3   119  LEU119      0.0022
    112  CD1       -2.6640  -17.9630   54.4150 C.3   119  LEU119      0.0001
    113  CD2       -1.3230  -16.9440   56.2050 C.3   119  LEU119      0.0001
    114  N         -4.8450  -11.7260   54.5560 N.3   121  THR121     -0.1203
    115  CA        -4.5170  -10.3500   54.2220 C.3   121  THR121      0.1994
    116  C         -5.3080   -9.9300   52.9630 C.2   121  THR121      0.2618
    117  O         -6.4250   -9.3920   53.0870 O.2   121  THR121     -0.2717
    118  CB        -3.0300  -10.2500   53.9600 C.3   121  THR121      0.1784
    119  OG1       -2.6510  -11.3990   53.1840 O.3   121  THR121     -0.2211
    120  CG2       -2.2130  -10.2230   55.2970 C.3   121  THR121      0.0376
    121  N         -4.7910  -10.2160   51.7580 N.am  122  VAL122     -0.1965
    122  CA        -5.4230   -9.6970   50.5210 C.3   122  VAL122      0.1727
    123  C         -6.8340  -10.1930   50.2080 C.2   122  VAL122      0.2616
    124  O         -7.7440   -9.3830   49.9860 O.2   122  VAL122     -0.2715
    125  CB        -4.5260   -9.8350   49.2550 C.3   122  VAL122      0.0290
    126  CG1       -5.2540   -9.3330   47.9970 C.3   122  VAL122      0.0023
    127  CG2       -3.2240   -9.0270   49.4280 C.3   122  VAL122      0.0023
    128  N         -7.0110  -11.5140   50.1710 N.am  123  SER123     -0.1950
    129  CA        -8.2860  -12.1090   49.8090 C.3   123  SER123      0.1924
    130  C         -9.4140  -11.7180   50.7920 C.2   123  SER123      0.2314
    131  O        -10.5230  -11.3870   50.3750 O.2   123  SER123     -0.2863
    132  CB        -8.1400  -13.6250   49.6580 C.3   123  SER123      0.2116
    133  OG        -7.6500  -14.2450   50.8480 O.3   123  SER123     -0.2180
    134  N          3.2670  -19.3830   49.0760 N.3   150  ASP150     -0.1239
    135  CA         2.4050  -19.3470   47.9300 C.3   150  ASP150      0.1674
    136  C          3.2590  -18.9920   46.7230 C.2   150  ASP150      0.2266
    137  O          2.9740  -19.3970   45.5690 O.2   150  ASP150     -0.2867
    138  CB         1.3690  -18.2710   48.1600 C.3   150  ASP150      0.1410
    139  CG         0.2250  -18.3550   47.1950 C.2   150  ASP150      0.3668
    140  OD1       -0.4450  -17.3250   47.0100 O.co2 150  ASP150     -0.2456
    141  OD2       -0.0100  -19.4480   46.6420 O.co2 150  ASP150     -0.2456
@<TRIPOS>BOND
     1    33    34    1
     2    34    37    1
     3    34    35    1
     4    12    10    1
     5    11    10    1
     6    41    35   am
     7    41    42    1
     8    37    38    1
     9    35    36    2
    10    45    42    1
    11    45    46    1
    12    10     7    1
    13    39    38    1
    14    42    43    1
    15    44    43    2
    16    48    46   ar
    17    48    50   ar
    18    46    47   ar
    19    38    40    1
    20    30    29    2
    21    43    51   am
    22     7     6    1
    23     7     8    1
    24     1     2    1
    25     6     3   am
    26    50    49   ar
    27    47    49   ar
    28    29    28    1
    29     9     8    2
    30     8    13   am
    31    32    31    1
    32     2     3    1
    33     2     5    1
    34     3     4    2
    35    51    52    1
    36    16    15    2
    37    13    14    1
    38    31    28    1
    39    15    14    1
    40    28    27    1
    41    14    17    1
    42    52    53    1
    43    52    55    1
    44    53    54    2
    45    57    55    1
    46    27    23   am
    47    75    74    2
    48    55    56    1
    49    24    23    2
    50    80    81    1
    51    17    18    1
    52    23    22    1
    53    19    18    2
    54    73    74    1
    55    73    76    1
    56    73    72    1
    57    77    76    1
    58    77    79    1
    59    81    82    1
    60    81    84    1
    61    78    76    1
    62    18    20   am
    63    21    22    1
    64    87    82   am
    65    87    88    1
    66    61    60    2
    67    82    83    2
    68    58    59    1
    69    22    25    1
    70    85    84    1
    71    88    89    1
    72    84    86    1
    73    60    59    1
    74   137   136    2
    75    59    62    1
    76    26    25    1
    77    68    67    2
    78    89    90    2
    79   141   139   ar
    80   136   135    1
    81    66    69    1
    82    66    67    1
    83    66    65    1
    84   140   139   ar
    85    62    64    1
    86    62    63    1
    87    69    70    1
    88   139   138    1
    89    70    71    1
    90    65    71    1
    91   135   138    1
    92   135   134    1
    93   126   125    1
    94   125   127    1
    95   125   122    1
    96   132   129    1
    97   132   133    1
    98   129   128    1
    99   129   130    1
   100   124   123    2
   101   128   123   am
   102   123   122    1
   103    96    97    1
   104    96    95    1
   105   131   130    2
   106    91    92    1
   107   122   121    1
   108    97    98    1
   109    92    95    1
   110    92    93    1
   111    98    99    2
   112   121   116   am
   113    99   101    1
   114    99   100    1
   115    93   102   am
   116    93    94    2
   117   102   103    1
   118   116   117    2
   119   116   115    1
   120   119   118    1
   121   103   104    1
   122   118   115    1
   123   118   120    1
   124   115   114    1
   125   112   111    1
   126   104   106   am
   127   104   105    2
   128   106   107    1
   129   111   113    1
   130   111   110    1
   131   110   107    1
   132   107   108    1
   133   108   109    2
