@<TRIPOS>MOLECULE
tmp/2gm7C00.pdb
 193 189 0 0 0
SMALL
GASTEIGER

@<TRIPOS>ATOM
      1  N         26.4830   47.8040   -1.1190 N.3    39  TYR39      -0.1227
      2  CA        25.6090   47.2630   -0.0890 C.3    39  TYR39       0.1736
      3  C         25.3280   45.7700   -0.3110 C.2    39  TYR39       0.2595
      4  O         25.4670   44.9780    0.6240 O.2    39  TYR39      -0.2718
      5  CB        24.3310   48.0840   -0.0820 C.3    39  TYR39       0.0548
      6  CG        23.2340   47.6030    0.8120 C.ar   39  TYR39      -0.0200
      7  CD1       23.3240   47.7370    2.1960 C.ar   39  TYR39      -0.0009
      8  CD2       22.0710   47.0720    0.2690 C.ar   39  TYR39      -0.0009
      9  CE1       22.2910   47.3270    3.0150 C.ar   39  TYR39       0.0417
     10  CE2       21.0370   46.6580    1.0730 C.ar   39  TYR39       0.0417
     11  CZ        21.1480   46.7880    2.4420 C.ar   39  TYR39       0.1957
     12  OH        20.1050   46.3650    3.2210 O.3    39  TYR39      -0.2866
     13  N         24.9710   45.3860   -1.5440 N.am   40  LEU40      -0.1980
     14  CA        24.7460   43.9630   -1.8550 C.3    40  LEU40       0.1596
     15  C         26.0140   43.1470   -1.5880 C.2    40  LEU40       0.2287
     16  O         25.9440   42.0950   -0.9670 O.2    40  LEU40      -0.2864
     17  CB        24.2540   43.7140   -3.2910 C.3    40  LEU40       0.0297
     18  CG        22.8090   44.0300   -3.6960 C.3    40  LEU40       0.0022
     19  CD1       22.5280   43.4570   -5.0590 C.3    40  LEU40       0.0001
     20  CD2       21.8120   43.4590   -2.7500 C.3    40  LEU40       0.0001
     21  N         26.3690   42.5610    2.0810 N.3    43  ASP43      -0.1239
     22  CA        25.3130   41.6950    2.6400 C.3    43  ASP43       0.1674
     23  C         25.7230   40.2300    2.7940 C.2    43  ASP43       0.2266
     24  O         25.1980   39.5360    3.6640 O.2    43  ASP43      -0.2867
     25  CB        24.0260   41.7670    1.7990 C.3    43  ASP43       0.1410
     26  CG        23.2180   43.0170    2.0660 C.2    43  ASP43       0.3668
     27  OD1       23.7120   43.8940    2.8050 O.co2  43  ASP43      -0.2456
     28  OD2       22.0800   43.1180    1.5500 O.co2  43  ASP43      -0.2456
     29  N         27.0170   39.6980    6.0700 N.3    46  TYR46      -0.1227
     30  CA        25.9220   39.9750    6.9990 C.3    46  TYR46       0.1736
     31  C         25.0710   38.7150    7.0760 C.2    46  TYR46       0.2595
     32  O         24.7480   38.2210    8.1490 O.2    46  TYR46      -0.2718
     33  CB        25.0920   41.1600    6.4740 C.3    46  TYR46       0.0548
     34  CG        24.0430   41.7530    7.4030 C.ar   46  TYR46      -0.0200
     35  CD1       24.0400   43.1150    7.7020 C.ar   46  TYR46      -0.0009
     36  CD2       23.0310   40.9690    7.9500 C.ar   46  TYR46      -0.0009
     37  CE1       23.0740   43.6690    8.5390 C.ar   46  TYR46       0.0417
     38  CE2       22.0620   41.5160    8.7810 C.ar   46  TYR46       0.0417
     39  CZ        22.0870   42.8590    9.0690 C.ar   46  TYR46       0.1957
     40  OH        21.1200   43.3750    9.8950 O.3    46  TYR46      -0.2866
     41  N         24.7530   38.1870    5.9070 N.am   47  LEU47      -0.1980
     42  CA        23.8470   37.0530    5.7700 C.3    47  LEU47       0.1596
     43  C         24.4150   35.7630    6.3560 C.2    47  LEU47       0.2287
     44  O         23.7780   35.1070    7.1630 O.2    47  LEU47      -0.2864
     45  CB        23.4980   36.8820    4.2970 C.3    47  LEU47       0.0297
     46  CG        22.2950   36.0150    3.9710 C.3    47  LEU47       0.0022
     47  CD1       21.6860   36.4570    2.6420 C.3    47  LEU47       0.0001
     48  CD2       22.6950   34.5370    3.9530 C.3    47  LEU47       0.0001
     49  N         24.9790   36.0210   10.2590 N.3    50  PHE50      -0.1241
     50  CA        23.6900   36.1460   10.9290 C.3    50  PHE50       0.1605
     51  C         23.0820   34.7270   11.0050 C.2    50  PHE50       0.2264
     52  O         22.3740   34.3890   11.9510 O.2    50  PHE50      -0.2867
     53  CB        22.7960   37.1090   10.1490 C.3    50  PHE50       0.0534
     54  CG        21.7440   37.7790   10.9740 C.ar   50  PHE50      -0.0203
     55  CD1       21.9960   39.0150   11.5650 C.ar   50  PHE50      -0.0042
     56  CD2       20.4870   37.1970   11.1310 C.ar   50  PHE50      -0.0042
     57  CE1       21.0280   39.6470   12.3120 C.ar   50  PHE50      -0.0003
     58  CE2       19.5040   37.8180   11.8740 C.ar   50  PHE50      -0.0003
     59  CZ        19.7720   39.0500   12.4690 C.ar   50  PHE50      -0.0000
     60  N         16.4290   29.3940    6.8580 N.3    76  GLY76      -0.1210
     61  CA        15.8470   30.3580    5.9340 C.3    76  GLY76       0.1956
     62  C         16.9220   31.2910    5.3950 C.2    76  GLY76       0.2612
     63  O         17.0370   31.4830    4.1920 O.2    76  GLY76      -0.2717
     64  N         17.7310   31.8550    6.2880 N.am   77  THR77      -0.1952
     65  CA        18.7920   32.7730    5.8860 C.3    77  THR77       0.1897
     66  C         19.7020   32.1720    4.8170 C.2    77  THR77       0.2313
     67  O         20.1690   32.8860    3.9280 O.2    77  THR77      -0.2863
     68  CB        19.6690   33.2190    7.0910 C.3    77  THR77       0.1794
     69  OG1       18.8660   33.9260    8.0400 O.3    77  THR77      -0.2208
     70  CG2       20.7880   34.1470    6.6310 C.3    77  THR77       0.0378
     71  N         16.2390   30.2330    1.4270 N.3    80  GLY80      -0.1210
     72  CA        15.3810   31.2070    0.7400 C.3    80  GLY80       0.1956
     73  C         16.0100   32.5720    0.4790 C.2    80  GLY80       0.2611
     74  O         16.0310   33.0360   -0.6710 O.2    80  GLY80      -0.2717
     75  N         16.4890   33.2250    1.5430 N.am   81  GLU81      -0.1979
     76  CA        17.1750   34.5290    1.4320 C.3    81  GLU81       0.1602
     77  C         18.2990   34.4730    0.4260 C.2    81  GLU81       0.2287
     78  O         18.3830   35.3040   -0.4680 O.2    81  GLU81      -0.2864
     79  CB        17.8100   34.9670    2.7570 C.3    81  GLU81       0.0415
     80  CG        17.0480   35.9940    3.5500 C.3    81  GLU81       0.1163
     81  CD        17.9420   36.7060    4.5480 C.2    81  GLU81       0.3649
     82  OE1       18.6900   37.6230    4.1330 O.co2  81  GLU81      -0.2457
     83  OE2       17.8880   36.3510    5.7480 O.co2  81  GLU81      -0.2457
     84  N         17.2150   34.5090   -3.0950 N.3    84  ASN84      -0.1225
     85  CA        16.7830   35.8650   -3.4420 C.3    84  ASN84       0.1785
     86  C         17.9540   36.8310   -3.5770 C.2    84  ASN84       0.2597
     87  O         17.9640   37.6770   -4.4690 O.2    84  ASN84      -0.2718
     88  CB        15.7810   36.3950   -2.4170 C.3    84  ASN84       0.1169
     89  CG        14.4730   35.6140   -2.4150 C.2    84  ASN84       0.2627
     90  OD1       13.5240   36.0050   -1.7390 O.2    84  ASN84      -0.2716
     91  ND2       14.4160   34.5130   -3.1710 N.am   84  ASN84      -0.0877
     92  N         18.9370   36.6900   -2.6940 N.am   85  TYR85      -0.1976
     93  CA        20.1410   37.5150   -2.7250 C.3    85  TYR85       0.1639
     94  C         20.9280   37.2800   -4.0090 C.2    85  TYR85       0.2290
     95  O         21.3140   38.2280   -4.6860 O.2    85  TYR85      -0.2864
     96  CB        20.9950   37.2200   -1.4970 C.3    85  TYR85       0.0560
     97  CG        22.3530   37.8680   -1.4940 C.ar   85  TYR85      -0.0198
     98  CD1       22.4910   39.2330   -1.6950 C.ar   85  TYR85      -0.0009
     99  CD2       23.4990   37.1190   -1.2510 C.ar   85  TYR85      -0.0009
    100  CE1       23.7370   39.8320   -1.6850 C.ar   85  TYR85       0.0417
    101  CE2       24.7490   37.7080   -1.2330 C.ar   85  TYR85       0.0417
    102  CZ        24.8630   39.0650   -1.4530 C.ar   85  TYR85       0.1957
    103  OH        26.1030   39.6530   -1.4360 O.3    85  TYR85      -0.2866
    104  N         19.2370   38.8100   -6.7910 N.3    88  LEU88      -0.1245
    105  CA        19.3360   40.2690   -6.7180 C.3    88  LEU88       0.1561
    106  C         20.7050   40.6750   -7.2610 C.2    88  LEU88       0.2260
    107  O         20.8480   41.6970   -7.9220 O.2    88  LEU88      -0.2867
    108  CB        19.1820   40.7340   -5.2650 C.3    88  LEU88       0.0270
    109  CG        18.2520   41.9070   -4.9800 C.3    88  LEU88       0.0019
    110  CD1       16.7960   41.5020   -5.1810 C.3    88  LEU88       0.0001
    111  CD2       18.4620   42.4100   -3.5550 C.3    88  LEU88       0.0001
    112  N         17.4750   43.8890   13.5250 N.3   134  CYS134     -0.1221
    113  CA        17.6910   43.5510   12.1190 C.3   134  CYS134      0.1808
    114  C         16.3800   43.2740   11.3780 C.2   134  CYS134      0.2601
    115  O         16.0790   43.8950   10.3580 O.2   134  CYS134     -0.2717
    116  CB        18.6030   42.3310   12.0510 C.3   134  CYS134      0.0970
    117  SG        18.7610   41.5900   10.4500 S.3   134  CYS134     -0.0800
    118  N         15.5960   42.3530   11.9110 N.am  135  PHE135     -0.1976
    119  CA        14.3320   41.9800   11.2860 C.3   135  PHE135      0.1639
    120  C         13.3340   43.1370   11.3060 C.2   135  PHE135      0.2290
    121  O         12.7970   43.5430   10.2690 O.2   135  PHE135     -0.2864
    122  CB        13.7140   40.7760   12.0040 C.3   135  PHE135      0.0560
    123  CG        14.4630   39.4850   11.7990 C.ar  135  PHE135     -0.0200
    124  CD1       15.2520   38.9550   12.8100 C.ar  135  PHE135     -0.0042
    125  CD2       14.3610   38.7910   10.5990 C.ar  135  PHE135     -0.0042
    126  CE1       15.9320   37.7500   12.6320 C.ar  135  PHE135     -0.0003
    127  CE2       15.0430   37.5950   10.4100 C.ar  135  PHE135     -0.0003
    128  CZ        15.8290   37.0730   11.4330 C.ar  135  PHE135     -0.0000
    129  N         14.0560   46.7140    9.2760 N.3   138  TYR138     -0.1241
    130  CA        13.7990   46.6000    7.8330 C.3   138  TYR138      0.1605
    131  C         12.2950   46.6270    7.5480 C.2   138  TYR138      0.2264
    132  O         11.8570   47.1760    6.5390 O.2   138  TYR138     -0.2867
    133  CB        14.4560   45.3570    7.2300 C.3   138  TYR138      0.0534
    134  CG        15.9130   45.5730    6.8800 C.ar  138  TYR138     -0.0201
    135  CD1       16.8560   45.8340    7.8630 C.ar  138  TYR138     -0.0009
    136  CD2       16.3470   45.5000    5.5690 C.ar  138  TYR138     -0.0009
    137  CE1       18.1860   46.0340    7.5400 C.ar  138  TYR138      0.0417
    138  CE2       17.6800   45.6990    5.2370 C.ar  138  TYR138      0.0417
    139  CZ        18.5900   45.9680    6.2210 C.ar  138  TYR138      0.1957
    140  OH        19.9050   46.1710    5.8990 O.3   138  TYR138     -0.2866
    141  N         14.0340   44.2650   -4.2810 N.3   160  TRP160     -0.1241
    142  CA        14.6710   44.2080   -2.9820 C.3   160  TRP160      0.1605
    143  C         13.6730   44.5640   -1.8730 C.2   160  TRP160      0.2264
    144  O         13.4810   43.8010   -0.9170 O.2   160  TRP160     -0.2867
    145  CB        15.8580   45.1740   -2.9630 C.3   160  TRP160      0.0550
    146  CG        16.5550   45.3010   -1.6450 C.ar  160  TRP160      0.0003
    147  CD1       17.5470   44.5050   -1.1670 C.ar  160  TRP160      0.0946
    148  CD2       16.3280   46.3050   -0.6480 C.ar  160  TRP160      0.0152
    149  NE1       17.9490   44.9390    0.0760 N.ar  160  TRP160     -0.2442
    150  CE2       17.2170   46.0460    0.4150 C.ar  160  TRP160      0.0810
    151  CE3       15.4620   47.3990   -0.5500 C.ar  160  TRP160      0.0012
    152  CZ2       17.2600   46.8360    1.5630 C.ar  160  TRP160      0.0191
    153  CZ3       15.5120   48.1890    0.5930 C.ar  160  TRP160      0.0001
    154  CH2       16.4020   47.8980    1.6330 C.ar  160  TRP160      0.0015
    155  N         10.1530   42.2520   -0.3350 N.3   163  VAL163     -0.1231
    156  CA        10.2320   41.3120    0.7880 C.3   163  VAL163      0.1692
    157  C          9.7350   41.9510    2.0730 C.2   163  VAL163      0.2592
    158  O          8.8760   41.4050    2.7600 O.2   163  VAL163     -0.2718
    159  CB        11.6920   40.8490    1.0390 C.3   163  VAL163      0.0266
    160  CG1       11.8080   40.1120    2.3700 C.3   163  VAL163      0.0020
    161  CG2       12.1800   39.9770   -0.0990 C.3   163  VAL163      0.0020
    162  N         10.2710   43.1270    2.3680 N.am  164  TYR164     -0.1976
    163  CA        10.0240   43.7960    3.6460 C.3   164  TYR164      0.1639
    164  C          8.6130   44.3170    3.7630 C.2   164  TYR164      0.2290
    165  O          8.1200   44.5120    4.8680 O.2   164  TYR164     -0.2864
    166  CB        11.0720   44.8940    3.8710 C.3   164  TYR164      0.0560
    167  CG        12.4590   44.3320    3.6520 C.ar  164  TYR164     -0.0198
    168  CD1       13.3320   44.8810    2.7160 C.ar  164  TYR164     -0.0009
    169  CD2       12.8530   43.1700    4.3140 C.ar  164  TYR164     -0.0009
    170  CE1       14.5960   44.3120    2.4930 C.ar  164  TYR164      0.0417
    171  CE2       14.0870   42.6040    4.0980 C.ar  164  TYR164      0.0417
    172  CZ        14.9610   43.1680    3.1940 C.ar  164  TYR164      0.1957
    173  OH        16.1860   42.5600    3.0190 O.3   164  TYR164     -0.2866
    174  N          6.7660   38.6030    5.7090 N.3   169  TYR169     -0.1241
    175  CA         7.8750   39.2220    6.4420 C.3   169  TYR169      0.1605
    176  C          7.3880   39.9120    7.7210 C.2   169  TYR169      0.2264
    177  O          8.0260   39.8060    8.7750 O.2   169  TYR169     -0.2867
    178  CB         8.6600   40.2060    5.5560 C.3   169  TYR169      0.0534
    179  CG         9.8970   40.7430    6.2370 C.ar  169  TYR169     -0.0201
    180  CD1       11.1110   40.0780    6.1420 C.ar  169  TYR169     -0.0009
    181  CD2        9.8490   41.9010    7.0020 C.ar  169  TYR169     -0.0009
    182  CE1       12.2490   40.5610    6.7740 C.ar  169  TYR169      0.0417
    183  CE2       10.9830   42.3860    7.6440 C.ar  169  TYR169      0.0417
    184  CZ        12.1740   41.7060    7.5230 C.ar  169  TYR169      0.1957
    185  OH        13.2920   42.1780    8.1470 O.3   169  TYR169     -0.2866
    186  N          6.5540   37.4050   10.4570 N.3   172  LEU172     -0.1245
    187  CA         7.7870   36.9070   11.0750 C.3   172  LEU172      0.1561
    188  C          8.2530   37.8380   12.1800 C.2   172  LEU172      0.2260
    189  O          8.6700   37.3910   13.2500 O.2   172  LEU172     -0.2867
    190  CB         8.9000   36.7990   10.0330 C.3   172  LEU172      0.0270
    191  CG        10.2920   36.4940   10.5860 C.3   172  LEU172      0.0019
    192  CD1       10.2460   35.1430   11.3010 C.3   172  LEU172      0.0001
    193  CD2       11.3520   36.5040    9.4900 C.3   172  LEU172      0.0001
@<TRIPOS>BOND
     1   107   106    2
     2   106   105    1
     3   104   105    1
     4   105   108    1
     5   108   109    1
     6   110   109    1
     7    19    18    1
     8   109   111    1
     9    95    94    2
    10    87    86    2
    11   141   142    1
    12    94    93    1
    13    18    17    1
    14    18    20    1
    15    86    85    1
    16    86    92   am
    17    85    84    1
    18    85    88    1
    19    17    14    1
    20    91    89   am
    21   142   145    1
    22   142   143    1
    23   145   146    1
    24    93    92    1
    25    93    96    1
    26    88    89    1
    27    89    90    2
    28   143   144    2
    29    14    15    1
    30    14    13    1
    31    98   100   ar
    32    98    97   ar
    33   100   102   ar
    34   146   147   ar
    35   146   148   ar
    36    15    16    2
    37    13     3   am
    38    96    97    1
    39    97    99   ar
    40   102   103    1
    41   102   101   ar
    42    99   101   ar
    43   147   149   ar
    44     1     2    1
    45    74    73    2
    46   148   151   ar
    47   148   150   ar
    48   151   153   ar
    49    78    77    2
    50   155   156    1
    51     3     2    1
    52     3     4    2
    53   161   159    1
    54     2     5    1
    55     5     6    1
    56   149   150   ar
    57     8     6   ar
    58     8    10   ar
    59   150   152   ar
    60    77    76    1
    61    73    72    1
    62    73    75   am
    63   153   154   ar
    64    72    71    1
    65   156   159    1
    66   156   157    1
    67     6     7   ar
    68   159   160    1
    69    10    11   ar
    70    76    75    1
    71    76    79    1
    72    28    26   ar
    73   152   154   ar
    74    25    26    1
    75    25    22    1
    76    26    27   ar
    77   157   162   am
    78   157   158    2
    79    21    22    1
    80     7     9   ar
    81   162   163    1
    82    11     9   ar
    83    11    12    1
    84   170   168   ar
    85   170   172   ar
    86    22    23    1
    87    47    46    1
    88   168   167   ar
    89    79    80    1
    90    23    24    2
    91   173   172    1
    92   172   171   ar
    93    80    81    1
    94   163   164    1
    95   163   166    1
    96   167   166    1
    97   167   169   ar
    98   164   165    2
    99    67    66    2
   100    48    46    1
   101    46    45    1
   102   171   169   ar
   103    82    81   ar
   104    63    62    2
   105    45    42    1
   106    81    83   ar
   107    66    65    1
   108   138   136   ar
   109   138   139   ar
   110    62    61    1
   111    62    64   am
   112   178   179    1
   113   178   175    1
   114   136   134   ar
   115   174   175    1
   116    42    41    1
   117    42    43    1
   118    65    64    1
   119    65    68    1
   120   140   139    1
   121    41    31   am
   122    61    60    1
   123    29    30    1
   124   180   179   ar
   125   180   182   ar
   126   139   137   ar
   127   179   181   ar
   128    43    44    2
   129   175   176    1
   130    33    30    1
   131    33    34    1
   132   132   131    2
   133    70    68    1
   134   182   184   ar
   135   134   133    1
   136   134   135   ar
   137    30    31    1
   138   181   183   ar
   139    31    32    2
   140    68    69    1
   141   133   130    1
   142    34    35   ar
   143    34    36   ar
   144   184   183   ar
   145   184   185    1
   146   137   135   ar
   147   131   130    1
   148    35    37   ar
   149   176   177    2
   150   130   129    1
   151    36    38   ar
   152    37    39   ar
   153    38    39   ar
   154    39    40    1
   155   193   191    1
   156   190   191    1
   157   190   187    1
   158    53    50    1
   159    53    54    1
   160    49    50    1
   161   121   120    2
   162   115   114    2
   163   127   125   ar
   164   127   128   ar
   165   117   116    1
   166   186   187    1
   167   191   192    1
   168   125   123   ar
   169    50    51    1
   170    54    56   ar
   171    54    55   ar
   172    51    52    2
   173   187   188    1
   174    56    58   ar
   175   119   120    1
   176   119   118    1
   177   119   122    1
   178   114   118   am
   179   114   113    1
   180   128   126   ar
   181    55    57   ar
   182   123   122    1
   183   123   124   ar
   184    58    59   ar
   185   116   113    1
   186   113   112    1
   187   188   189    2
   188    57    59   ar
   189   126   124   ar
