@<TRIPOS>MOLECULE
tmp/2gm8D00.pdb
 145 142 0 0 0
SMALL
GASTEIGER

@<TRIPOS>ATOM
      1  N         31.0570   -8.6790   39.7520 N.3    48  ASP48      -0.1239
      2  CA        31.9860   -8.2450   38.7070 C.3    48  ASP48       0.1674
      3  C         32.7110   -9.3900   37.9920 C.2    48  ASP48       0.2266
      4  O         33.1110   -9.2100   36.8430 O.2    48  ASP48      -0.2867
      5  CB        33.0230   -7.2380   39.2240 C.3    48  ASP48       0.1410
      6  CG        33.6380   -6.3900   38.1070 C.2    48  ASP48       0.3668
      7  OD1       32.9380   -5.5190   37.5440 O.co2  48  ASP48      -0.2456
      8  OD2       34.8330   -6.5790   37.7900 O.co2  48  ASP48      -0.2456
      9  N         30.5550  -10.5180   35.3670 N.3    51  TYR51      -0.1227
     10  CA        30.6620   -9.5110   34.3430 C.3    51  TYR51       0.1736
     11  C         31.8820   -9.7790   33.4660 C.2    51  TYR51       0.2595
     12  O         31.7750   -9.8720   32.2430 O.2    51  TYR51      -0.2718
     13  CB        30.7580   -8.1390   34.9990 C.3    51  TYR51       0.0548
     14  CG        31.0880   -7.0420   34.0270 C.ar   51  TYR51      -0.0200
     15  CD1       32.4110   -6.7070   33.7600 C.ar   51  TYR51      -0.0009
     16  CD2       30.0780   -6.3570   33.3640 C.ar   51  TYR51      -0.0009
     17  CE1       32.7210   -5.7170   32.8560 C.ar   51  TYR51       0.0417
     18  CE2       30.3760   -5.3530   32.4640 C.ar   51  TYR51       0.0417
     19  CZ        31.6980   -5.0370   32.2150 C.ar   51  TYR51       0.1957
     20  OH        31.9820   -4.0280   31.3260 O.3    51  TYR51      -0.2866
     21  N         33.0470   -9.8890   34.0880 N.am   52  LEU52      -0.1980
     22  CA        34.2880  -10.0300   33.3290 C.3    52  LEU52       0.1596
     23  C         34.2180  -11.2480   32.4180 C.2    52  LEU52       0.2287
     24  O         34.6840  -11.2210   31.2750 O.2    52  LEU52      -0.2864
     25  CB        35.5210  -10.1410   34.2350 C.3    52  LEU52       0.0297
     26  CG        35.9440   -8.8800   35.0040 C.3    52  LEU52       0.0022
     27  CD1       37.1850   -9.1620   35.8550 C.3    52  LEU52       0.0001
     28  CD2       36.1740   -7.6720   34.0850 C.3    52  LEU52       0.0001
     29  N         32.1650  -10.2280   29.7080 N.3    55  PHE55      -0.1241
     30  CA        32.8750   -9.1930   28.9850 C.3    55  PHE55       0.1605
     31  C         33.8120   -9.9010   28.0080 C.2    55  PHE55       0.2264
     32  O         33.9190   -9.5390   26.8390 O.2    55  PHE55      -0.2867
     33  CB        33.6530   -8.3300   29.9710 C.3    55  PHE55       0.0534
     34  CG        34.2550   -7.0980   29.3630 C.ar   55  PHE55      -0.0203
     35  CD1       33.4650   -6.0120   29.0340 C.ar   55  PHE55      -0.0042
     36  CD2       35.6240   -7.0030   29.1700 C.ar   55  PHE55      -0.0042
     37  CE1       34.0270   -4.8760   28.4810 C.ar   55  PHE55      -0.0003
     38  CE2       36.1920   -5.8560   28.6400 C.ar   55  PHE55      -0.0003
     39  CZ        35.3950   -4.7950   28.2860 C.ar   55  PHE55      -0.0000
     40  N         42.6490   -8.8480   34.3030 N.3    86  GLU86      -0.1245
     41  CA        41.4870   -8.6430   35.1640 C.3    86  GLU86       0.1567
     42  C         40.9360   -9.9180   35.7930 C.2    86  GLU86       0.2260
     43  O         40.8710  -10.0170   37.0150 O.2    86  GLU86      -0.2867
     44  CB        40.3760   -7.8770   34.4360 C.3    86  GLU86       0.0388
     45  CG        40.6440   -6.3830   34.3360 C.3    86  GLU86       0.1160
     46  CD        39.3710   -5.5790   34.2150 C.2    86  GLU86       0.3649
     47  OE1       38.8630   -5.4510   33.0810 O.co2  86  GLU86      -0.2457
     48  OE2       38.8950   -5.0740   35.2570 O.co2  86  GLU86      -0.2457
     49  N         41.1980  -10.9510   39.8240 N.3    90  TYR90      -0.1241
     50  CA        39.9290  -11.1060   40.5240 C.3    90  TYR90       0.1605
     51  C         39.8670  -12.4510   41.2290 C.2    90  TYR90       0.2264
     52  O         39.3550  -12.5430   42.3420 O.2    90  TYR90      -0.2867
     53  CB        38.7360  -10.9110   39.5790 C.3    90  TYR90       0.0534
     54  CG        38.2860   -9.4660   39.4820 C.ar   90  TYR90      -0.0201
     55  CD1       39.0780   -8.4950   38.8830 C.ar   90  TYR90      -0.0009
     56  CD2       37.0660   -9.0700   40.0180 C.ar   90  TYR90      -0.0009
     57  CE1       38.6560   -7.1730   38.8090 C.ar   90  TYR90       0.0417
     58  CE2       36.6470   -7.7610   39.9600 C.ar   90  TYR90       0.0417
     59  CZ        37.4380   -6.8130   39.3540 C.ar   90  TYR90       0.1957
     60  OH        36.9760   -5.5140   39.3100 O.3    90  TYR90      -0.2866
     61  N         23.4240   -5.2320   31.7350 N.3   116  TYR116     -0.1241
     62  CA        24.6740   -4.7360   31.1720 C.3   116  TYR116      0.1605
     63  C         25.3370   -5.8310   30.3520 C.2   116  TYR116      0.2264
     64  O         25.6620   -5.6410   29.1760 O.2   116  TYR116     -0.2867
     65  CB        25.5810   -4.2500   32.3090 C.3   116  TYR116      0.0534
     66  CG        26.8170   -3.4510   31.9320 C.ar  116  TYR116     -0.0201
     67  CD1       27.0400   -2.9910   30.6420 C.ar  116  TYR116     -0.0009
     68  CD2       27.7250   -3.0810   32.9070 C.ar  116  TYR116     -0.0009
     69  CE1       28.1660   -2.2300   30.3360 C.ar  116  TYR116      0.0417
     70  CE2       28.8450   -2.3270   32.6090 C.ar  116  TYR116      0.0417
     71  CZ        29.0770   -1.8990   31.3200 C.ar  116  TYR116      0.1957
     72  OH        30.2140   -1.1490   31.0380 O.3   116  TYR116     -0.2866
     73  N         33.5970    0.9940   29.6750 N.3   139  CYS139     -0.1221
     74  CA        33.8720    0.0000   30.6960 C.3   139  CYS139      0.1808
     75  C         35.3500    0.0850   31.0370 C.2   139  CYS139      0.2601
     76  O         35.7210    0.1920   32.2030 O.2   139  CYS139     -0.2717
     77  CB        33.5170   -1.3730   30.1270 C.3   139  CYS139      0.0970
     78  SG        32.0590   -1.3230   29.0270 S.3   139  CYS139     -0.0800
     79  N         36.1910    0.0720   30.0060 N.am  140  PHE140     -0.1976
     80  CA        37.6380    0.1540   30.2000 C.3   140  PHE140      0.1639
     81  C         38.1030    1.5120   30.7310 C.2   140  PHE140      0.2290
     82  O         38.8780    1.6200   31.6870 O.2   140  PHE140     -0.2864
     83  CB        38.3680   -0.0880   28.8710 C.3   140  PHE140      0.0560
     84  CG        38.5990   -1.5360   28.5420 C.ar  140  PHE140     -0.0200
     85  CD1       37.9630   -2.1270   27.4620 C.ar  140  PHE140     -0.0042
     86  CD2       39.4820   -2.2990   29.2940 C.ar  140  PHE140     -0.0042
     87  CE1       38.1970   -3.4570   27.1540 C.ar  140  PHE140     -0.0003
     88  CE2       39.7110   -3.6310   28.9970 C.ar  140  PHE140     -0.0003
     89  CZ        39.0690   -4.2130   27.9240 C.ar  140  PHE140     -0.0000
     90  N         37.0080    3.0380   34.4170 N.3   143  TYR143     -0.1241
     91  CA        37.8310    2.4830   35.4910 C.3   143  TYR143      0.1605
     92  C         39.2170    3.1370   35.5300 C.2   143  TYR143      0.2264
     93  O         39.7520    3.3550   36.6120 O.2   143  TYR143     -0.2867
     94  CB        37.9420    0.9600   35.3970 C.3   143  TYR143      0.0534
     95  CG        36.8730    0.1820   36.1430 C.ar  143  TYR143     -0.0201
     96  CD1       35.5220    0.3680   35.8750 C.ar  143  TYR143     -0.0009
     97  CD2       37.2170   -0.7950   37.0750 C.ar  143  TYR143     -0.0009
     98  CE1       34.5530   -0.3710   36.5390 C.ar  143  TYR143      0.0417
     99  CE2       36.2510   -1.5390   37.7380 C.ar  143  TYR143      0.0417
    100  CZ        34.9210   -1.3270   37.4620 C.ar  143  TYR143      0.1957
    101  OH        33.9500   -2.0550   38.1100 O.3   143  TYR143     -0.2866
    102  N         44.0920   -0.7990   37.6160 N.3   169  TYR169     -0.1241
    103  CA        43.5670    0.3520   36.8830 C.3   169  TYR169      0.1605
    104  C         44.5080    1.5610   36.8750 C.2   169  TYR169      0.2264
    105  O         44.3100    2.4980   36.0960 O.2   169  TYR169     -0.2867
    106  CB        42.1750    0.6850   37.4350 C.3   169  TYR169      0.0534
    107  CG        41.3520   -0.5770   37.5460 C.ar  169  TYR169     -0.0201
    108  CD1       41.0740   -1.1550   38.7790 C.ar  169  TYR169     -0.0009
    109  CD2       40.9520   -1.2530   36.4070 C.ar  169  TYR169     -0.0009
    110  CE1       40.3700   -2.3440   38.8700 C.ar  169  TYR169      0.0417
    111  CE2       40.2450   -2.4290   36.4900 C.ar  169  TYR169      0.0417
    112  CZ        39.9610   -2.9720   37.7200 C.ar  169  TYR169      0.1957
    113  OH        39.2520   -4.1490   37.7720 O.3   169  TYR169     -0.2866
    114  N         47.2360   -1.3880   31.8420 N.3   174  TYR174     -0.1241
    115  CA        45.8050   -1.1400   31.7270 C.3   174  TYR174      0.1605
    116  C         45.4860    0.1960   31.0450 C.2   174  TYR174      0.2264
    117  O         44.6110    0.2800   30.1760 O.2   174  TYR174     -0.2867
    118  CB        45.1590   -1.1330   33.1120 C.3   174  TYR174      0.0534
    119  CG        43.6690   -1.0230   32.9810 C.ar  174  TYR174     -0.0201
    120  CD1       42.9070   -2.1440   32.6980 C.ar  174  TYR174     -0.0009
    121  CD2       43.0290    0.2060   33.0910 C.ar  174  TYR174     -0.0009
    122  CE1       41.5400   -2.0550   32.5550 C.ar  174  TYR174      0.0417
    123  CE2       41.6620    0.3050   32.9510 C.ar  174  TYR174      0.0417
    124  CZ        40.9230   -0.8300   32.6760 C.ar  174  TYR174      0.1957
    125  OH        39.5630   -0.7480   32.5060 O.3   174  TYR174     -0.2866
    126  N         27.4660    1.5320   33.5760 N.3   206  GLU206     -0.1245
    127  CA        28.5360    1.6240   34.5640 C.3   206  GLU206      0.1567
    128  C         28.0190    2.3380   35.8070 C.2   206  GLU206      0.2260
    129  O         28.3200    1.9250   36.9150 O.2   206  GLU206     -0.2867
    130  CB        29.7440    2.3710   34.0140 C.3   206  GLU206      0.0388
    131  CG        30.6710    1.5100   33.1830 C.3   206  GLU206      0.1160
    132  CD        31.2720    0.3730   33.9820 C.2   206  GLU206      0.3649
    133  OE1       31.3380    0.4740   35.2290 O.co2 206  GLU206     -0.2457
    134  OE2       31.6700   -0.6200   33.3460 O.co2 206  GLU206     -0.2457
    135  N         25.7110    0.1380   37.7290 N.3   209  PHE209     -0.1241
    136  CA        26.4110   -1.0080   38.2980 C.3   209  PHE209      0.1605
    137  C         26.9910   -0.6450   39.6640 C.2   209  PHE209      0.2264
    138  O         26.8570   -1.3830   40.6440 O.2   209  PHE209     -0.2867
    139  CB        27.5220   -1.4750   37.3620 C.3   209  PHE209      0.0534
    140  CG        28.0580   -2.8450   37.6760 C.ar  209  PHE209     -0.0203
    141  CD1       27.6020   -3.9540   36.9840 C.ar  209  PHE209     -0.0042
    142  CD2       29.0330   -3.0240   38.6350 C.ar  209  PHE209     -0.0042
    143  CE1       28.0940   -5.2180   37.2540 C.ar  209  PHE209     -0.0003
    144  CE2       29.5400   -4.2820   38.9050 C.ar  209  PHE209     -0.0003
    145  CZ        29.0670   -5.3800   38.2180 C.ar  209  PHE209     -0.0000
@<TRIPOS>BOND
     1    32    31    2
     2    87    85   ar
     3    87    89   ar
     4    85    84   ar
     5    89    88   ar
     6    31    30    1
     7    39    37   ar
     8    39    38   ar
     9    37    35   ar
    10    84    83    1
    11    84    86   ar
    12    38    36   ar
    13    83    80    1
    14    30    29    1
    15    30    33    1
    16    88    86   ar
    17    78    77    1
    18    35    34   ar
    19    36    34   ar
    20    64    63    2
    21    34    33    1
    22    73    74    1
    23    79    80    1
    24    79    75   am
    25    77    74    1
    26   117   116    2
    27    80    81    1
    28    69    67   ar
    29    69    71   ar
    30    63    62    1
    31    67    66   ar
    32    74    75    1
    33    81    82    2
    34    75    76    2
    35    72    71    1
    36   116   115    1
    37    62    61    1
    38    62    65    1
    39    24    23    2
    40    71    70   ar
    41    20    19    1
    42   115   114    1
    43   115   118    1
    44    66    65    1
    45    66    68   ar
    46    19    18   ar
    47    19    17   ar
    48    12    11    2
    49    23    22    1
    50    18    16   ar
    51   125   124    1
    52   122   124   ar
    53   122   120   ar
    54    70    68   ar
    55   124   123   ar
    56   120   119   ar
    57    17    15   ar
    58   123   121   ar
    59   119   121   ar
    60   119   118    1
    61    47    46   ar
    62   131   132    1
    63   131   130    1
    64    22    21    1
    65    22    25    1
    66   134   132   ar
    67    16    14   ar
    68    11    21   am
    69    11    10    1
    70   126   127    1
    71    15    14   ar
    72   132   133   ar
    73   130   127    1
    74    14    13    1
    75    28    26    1
    76    46    45    1
    77    46    48   ar
    78    25    26    1
    79    40    41    1
    80    45    44    1
    81    10    13    1
    82    10     9    1
    83    90    91    1
    84    44    41    1
    85   127   128    1
    86    26    27    1
    87    41    42    1
    88    94    91    1
    89    94    95    1
    90    91    92    1
    91    92    93    2
    92    42    43    2
    93   128   129    2
    94    96    95   ar
    95    96    98   ar
    96   105   104    2
    97    95    97   ar
    98   109   111   ar
    99   109   107   ar
   100   111   112   ar
   101    98   100   ar
   102     4     3    2
   103   104   103    1
   104   103   106    1
   105   103   102    1
   106   141   143   ar
   107   141   140   ar
   108    97    99   ar
   109   143   145   ar
   110   139   140    1
   111   139   136    1
   112   106   107    1
   113   100    99   ar
   114   100   101    1
   115     7     6   ar
   116   107   108   ar
   117   140   142   ar
   118   112   113    1
   119   112   110   ar
   120   135   136    1
   121     8     6   ar
   122     3     2    1
   123     6     5    1
   124   145   144   ar
   125   136   137    1
   126   142   144   ar
   127     2     5    1
   128     2     1    1
   129   108   110   ar
   130    57    55   ar
   131    57    59   ar
   132    55    54   ar
   133    60    59    1
   134    59    58   ar
   135    54    53    1
   136    54    56   ar
   137    53    50    1
   138   137   138    2
   139    49    50    1
   140    58    56   ar
   141    50    51    1
   142    51    52    2
