@<TRIPOS>MOLECULE
tmp/2gm9A01.pdb
 110 109 0 0 0
SMALL
GASTEIGER

@<TRIPOS>ATOM
      1  N         14.0420  116.9180   20.4770 N.3    46  HIS46      -0.1241
      2  CA        12.9700  116.6490   21.4570 C.3    46  HIS46       0.1621
      3  C         11.6260  117.3020   21.0620 C.2    46  HIS46       0.2264
      4  O         10.5540  116.6720   21.1840 O.2    46  HIS46      -0.2867
      5  CB        13.3770  117.0740   22.8790 C.3    46  HIS46       0.0745
      6  CG        14.4160  116.1920   23.4720 C.ar   46  HIS46       0.0817
      7  ND1       15.7630  116.4230   23.3060 N.ar   46  HIS46      -0.2268
      8  CD2       14.3100  115.0280   24.1430 C.ar   46  HIS46       0.1154
      9  CE1       16.4430  115.4440   23.8720 C.ar   46  HIS46       0.1986
     10  NE2       15.5850  114.5770   24.3710 N.ar   46  HIS46      -0.2212
     11  N         10.3610  115.4090   18.1190 N.3    49  ARG49      -0.1231
     12  CA         9.9390  114.1010   18.6340 C.3    49  ARG49       0.1694
     13  C          8.5670  114.1370   19.3180 C.2    49  ARG49       0.2592
     14  O          7.7870  113.2060   19.1810 O.2    49  ARG49      -0.2718
     15  CB        10.9790  113.5430   19.6240 C.3    49  ARG49       0.0321
     16  CG        10.5770  112.1960   20.2650 C.3    49  ARG49       0.0489
     17  CD        11.5790  111.7790   21.3200 C.3    49  ARG49       0.2205
     18  NE        11.2760  112.3150   22.6450 N.pl3  49  ARG49      -0.0865
     19  CZ        11.9840  112.0710   23.7490 C.cat  49  ARG49       0.5346
     20  NH1       13.0730  111.2900   23.7400 N.pl3  49  ARG49       0.1354
     21  NH2       11.5800  112.6000   24.8990 N.pl3  49  ARG49       0.1354
     22  N          8.2850  115.1900   20.0820 N.am   50  ASP50      -0.1974
     23  CA         6.9730  115.3160   20.7420 C.3    50  ASP50       0.1709
     24  C          5.7910  115.2230   19.7590 C.2    50  ASP50       0.2293
     25  O          4.7490  114.6820   20.1230 O.2    50  ASP50      -0.2864
     26  CB         6.8520  116.6230   21.5360 C.3    50  ASP50       0.1436
     27  CG         7.7920  116.6790   22.7520 C.2    50  ASP50       0.3671
     28  OD1        8.2220  115.6080   23.2060 O.co2  50  ASP50      -0.2456
     29  OD2        8.1010  117.7930   23.2340 O.co2  50  ASP50      -0.2456
     30  N          5.4580  113.1910   17.2880 N.3    52  LEU52      -0.1231
     31  CA         5.2140  111.8210   16.8850 C.3    52  LEU52       0.1693
     32  C          4.2870  111.1090   17.8450 C.2    52  LEU52       0.2591
     33  O          3.5560  110.1700   17.4350 O.2    52  LEU52      -0.2718
     34  CB         6.5430  111.0550   16.7970 C.3    52  LEU52       0.0284
     35  CG         7.4740  111.3540   15.6170 C.3    52  LEU52       0.0019
     36  CD1        8.8850  110.9390   15.9510 C.3    52  LEU52       0.0001
     37  CD2        7.0270  110.6250   14.3520 C.3    52  LEU52       0.0001
     38  N          4.2890  111.5600   19.1080 N.am   53  VAL53      -0.1980
     39  CA         3.8140  110.7320   20.2350 C.3    53  VAL53       0.1595
     40  C          2.3200  110.3540   20.1880 C.2    53  VAL53       0.2287
     41  O          1.9310  109.1770   20.3350 O.2    53  VAL53      -0.2864
     42  CB         4.1600  111.4210   21.6100 C.3    53  VAL53       0.0276
     43  CG1        3.5030  110.7150   22.7650 C.3    53  VAL53       0.0022
     44  CG2        5.6740  111.4380   21.8490 C.3    53  VAL53       0.0022
     45  N          1.7850  107.9520   17.4950 N.3    56  TRP56      -0.1241
     46  CA         2.4260  106.6380   17.7670 C.3    56  TRP56       0.1605
     47  C          1.5100  105.7980   18.6610 C.2    56  TRP56       0.2264
     48  O          1.2390  104.6580   18.3820 O.2    56  TRP56      -0.2867
     49  CB         3.8260  106.8550   18.3680 C.3    56  TRP56       0.0550
     50  CG         4.7750  105.6660   18.3090 C.ar   56  TRP56       0.0003
     51  CD1        4.6230  104.5350   17.5750 C.ar   56  TRP56       0.0946
     52  CD2        6.0430  105.5370   18.9750 C.ar   56  TRP56       0.0152
     53  NE1        5.7010  103.7040   17.7400 N.ar   56  TRP56      -0.2442
     54  CE2        6.5840  104.2880   18.6020 C.ar   56  TRP56       0.0810
     55  CE3        6.7640  106.3470   19.8710 C.ar   56  TRP56       0.0012
     56  CZ2        7.8070  103.8140   19.0990 C.ar   56  TRP56       0.0191
     57  CZ3        7.9950  105.8680   20.3700 C.ar   56  TRP56       0.0001
     58  CH2        8.4970  104.6270   19.9640 C.ar   56  TRP56       0.0015
     59  N         20.3120  109.0050   22.1870 N.3   176  ASN176     -0.1240
     60  CA        19.4430  108.7890   21.0290 C.3   176  ASN176      0.1653
     61  C         18.0730  109.2900   21.4570 C.2   176  ASN176      0.2266
     62  O         17.3660  108.6410   22.2400 O.2   176  ASN176     -0.2867
     63  CB        19.3690  107.3050   20.6530 C.3   176  ASN176      0.1155
     64  CG        18.4490  107.0190   19.4420 C.2   176  ASN176      0.2627
     65  OD1       17.9930  107.9220   18.7700 O.2   176  ASN176     -0.2716
     66  ND2       18.2050  105.7410   19.1660 N.am  176  ASN176     -0.0877
     67  N         15.4880  109.5020   19.7400 N.3   178  TRP178     -0.1227
     68  CA        14.4290  108.9810   18.8890 C.3   178  TRP178      0.1737
     69  C         13.8670  107.6650   19.3940 C.2   178  TRP178      0.2595
     70  O         12.6860  107.3810   19.1580 O.2   178  TRP178     -0.2718
     71  CB        14.9640  108.8190   17.4670 C.3   178  TRP178      0.0564
     72  CG        15.4510  110.1200   16.9120 C.ar  178  TRP178      0.0003
     73  CD1       16.7290  110.4480   16.6280 C.ar  178  TRP178      0.0946
     74  CD2       14.6550  111.2890   16.6460 C.ar  178  TRP178      0.0152
     75  NE1       16.7880  111.7380   16.1610 N.ar  178  TRP178     -0.2442
     76  CE2       15.5260  112.2750   16.1540 C.ar  178  TRP178      0.0810
     77  CE3       13.2740  111.5780   16.7320 C.ar  178  TRP178      0.0012
     78  CZ2       15.0720  113.5620   15.7650 C.ar  178  TRP178      0.0191
     79  CZ3       12.8120  112.8370   16.3360 C.ar  178  TRP178      0.0001
     80  CH2       13.7040  113.8170   15.8720 C.ar  178  TRP178      0.0015
     81  N         14.6820  106.9100   20.1270 N.am  179  GLU179     -0.1965
     82  CA        14.3010  105.6180   20.6600 C.3   179  GLU179      0.1733
     83  C         13.6420  105.7480   22.0450 C.2   179  GLU179      0.2616
     84  O         13.9350  106.6980   22.8170 O.2   179  GLU179     -0.2715
     85  CB        15.5600  104.7190   20.8030 C.3   179  GLU179      0.0429
     86  CG        16.5270  105.1760   21.9090 C.3   179  GLU179      0.1163
     87  CD        17.7830  104.3520   21.9960 C.2   179  GLU179      0.3649
     88  OE1       18.0610  103.5070   21.0920 O.co2 179  GLU179     -0.2457
     89  OE2       18.4990  104.5560   22.9870 O.co2 179  GLU179     -0.2457
     90  N         12.8130  104.7420   22.3510 N.am  180  LYS180     -0.1963
     91  CA        12.1880  104.5800   23.6600 C.3   180  LYS180      0.1728
     92  C         12.4270  103.1640   24.2590 C.2   180  LYS180      0.2616
     93  O         11.9180  102.1390   23.7540 O.2   180  LYS180     -0.2715
     94  CB        10.6830  104.8120   23.5630 C.3   180  LYS180      0.0311
     95  CG         9.9490  104.5630   24.8820 C.3   180  LYS180      0.0038
     96  CD        10.2590  105.6410   25.8900 C.3   180  LYS180      0.0206
     97  CE         9.5920  105.3810   27.2240 C.3   180  LYS180      0.1093
     98  NZ        10.5540  104.9850   28.2990 N.3   180  LYS180     -0.1314
     99  N         13.1550  103.1480   25.3670 N.am  181  ALA181     -0.1977
    100  CA        13.4910  101.9330   26.0470 C.3   181  ALA181      0.1597
    101  C         12.2210  101.3630   26.6430 C.2   181  ALA181      0.2287
    102  O         11.3870  102.0850   27.2250 O.2   181  ALA181     -0.2864
    103  CB        14.5660  102.1860   27.1460 C.3   181  ALA181      0.0319
    104  N         10.1180  105.2290   16.5950 N.3   218  PRO218     -0.2116
    105  CA         9.0090  105.5890   15.7460 C.3   218  PRO218      0.1372
    106  C          9.3330  105.5760   14.2420 C.2   218  PRO218      0.2244
    107  O         10.3500  106.1050   13.7960 O.2   218  PRO218     -0.2868
    108  CB         8.6260  107.0040   16.2230 C.3   218  PRO218      0.0268
    109  CG         9.7500  107.4790   17.0600 C.3   218  PRO218      0.0207
    110  CD        10.6130  106.3430   17.4030 C.3   218  PRO218      0.0892
@<TRIPOS>BOND
     1   107   106    2
     2   106   105    1
     3    37    35    1
     4    35    36    1
     5    35    34    1
     6   105   108    1
     7   105   104    1
     8    78    80   ar
     9    78    76   ar
    10    80    79   ar
    11    76    75   ar
    12    76    74   ar
    13    75    73   ar
    14   108   109    1
    15    79    77   ar
    16   104   110    1
    17    73    72   ar
    18    74    77   ar
    19    74    72   ar
    20    34    31    1
    21    31    30    1
    22    31    32    1
    23    72    71    1
    24   109   110    1
    25    33    32    2
    26    71    68    1
    27    45    46    1
    28    51    53   ar
    29    51    50   ar
    30    53    54   ar
    31    46    49    1
    32    46    47    1
    33    32    38   am
    34    11    12    1
    35    50    49    1
    36    50    52   ar
    37    48    47    2
    38    54    52   ar
    39    54    56   ar
    40    12    13    1
    41    12    15    1
    42    65    64    2
    43    68    69    1
    44    68    67    1
    45    52    55   ar
    46    56    58   ar
    47    38    39    1
    48    70    69    2
    49    66    64   am
    50    14    13    2
    51    13    22   am
    52    69    81   am
    53    64    63    1
    54    15    16    1
    55    24    25    2
    56    24    23    1
    57    55    57   ar
    58    58    57   ar
    59    22    23    1
    60    81    82    1
    61    40    39    1
    62    40    41    2
    63    39    42    1
    64    16    17    1
    65     1     2    1
    66    63    60    1
    67    82    85    1
    68    82    83    1
    69    23    26    1
    70    85    86    1
    71    60    61    1
    72    60    59    1
    73     3     4    2
    74     3     2    1
    75    88    87   ar
    76    17    18    1
    77     2     5    1
    78    61    62    2
    79    26    27    1
    80    42    44    1
    81    42    43    1
    82    86    87    1
    83    87    89   ar
    84    83    90   am
    85    83    84    2
    86    90    91    1
    87    18    19    2
    88    27    28   ar
    89    27    29   ar
    90     5     6    1
    91     7     6   ar
    92     7     9   ar
    93     6     8   ar
    94    94    91    1
    95    94    95    1
    96    91    92    1
    97    20    19    1
    98    19    21    1
    99    93    92    2
   100     9    10   ar
   101     8    10   ar
   102    92    99   am
   103    95    96    1
   104    99   100    1
   105    96    97    1
   106   100   101    1
   107   100   103    1
   108   101   102    2
   109    97    98    1
