@<TRIPOS>MOLECULE
tmp/2gmhA03.pdb
 225 216 0 0 0
SMALL
GASTEIGER

@<TRIPOS>ATOM
      1  N         60.9820   26.8870   80.9570 N.3   111  PHE111     -0.1241
      2  CA        60.4640   25.5960   80.5290 C.3   111  PHE111      0.1605
      3  C         59.9140   24.9070   81.7680 C.2   111  PHE111      0.2264
      4  O         60.5340   24.9500   82.8220 O.2   111  PHE111     -0.2867
      5  CB        61.5920   24.7670   79.9300 C.3   111  PHE111      0.0534
      6  CG        61.1480   23.4770   79.3470 C.ar  111  PHE111     -0.0203
      7  CD1       60.4660   23.4420   78.1540 C.ar  111  PHE111     -0.0042
      8  CD2       61.4240   22.2800   79.9850 C.ar  111  PHE111     -0.0042
      9  CE1       60.0610   22.2170   77.6010 C.ar  111  PHE111     -0.0003
     10  CE2       61.0230   21.0600   79.4380 C.ar  111  PHE111     -0.0003
     11  CZ        60.3420   21.0350   78.2490 C.ar  111  PHE111     -0.0000
     12  N         57.2290   21.4580   83.3270 N.3   113  ILE113     -0.1245
     13  CA        56.4970   20.2310   83.0670 C.3   113  ILE113      0.1561
     14  C         55.1770   20.3840   83.7950 C.2   113  ILE113      0.2260
     15  O         55.1520   20.6400   85.0030 O.2   113  ILE113     -0.2867
     16  CB        57.2520   19.0040   83.5900 C.3   113  ILE113      0.0252
     17  CG1       58.6030   18.8870   82.8710 C.3   113  ILE113      0.0019
     18  CG2       56.4110   17.7530   83.3820 C.3   113  ILE113      0.0019
     19  CD1       59.5530   17.8230   83.4720 C.3   113  ILE113      0.0001
     20  N         61.8630   23.5040   85.1140 N.3   122  VAL122     -0.1245
     21  CA        63.0200   22.7420   84.6370 C.3   122  VAL122      0.1561
     22  C         64.2160   23.6640   84.3340 C.2   122  VAL122      0.2260
     23  O         64.0950   24.6180   83.5720 O.2   122  VAL122     -0.2867
     24  CB        62.6420   21.9400   83.3620 C.3   122  VAL122      0.0252
     25  CG1       63.8860   21.3760   82.6680 C.3   122  VAL122      0.0019
     26  CG2       61.7100   20.8180   83.7300 C.3   122  VAL122      0.0019
     27  N         71.6520   22.9230   76.5480 N.3   128  LEU128     -0.1245
     28  CA        70.4920   22.2510   75.9880 C.3   128  LEU128      0.1561
     29  C         70.0550   23.0150   74.7360 C.2   128  LEU128      0.2260
     30  O         70.4600   24.1640   74.5330 O.2   128  LEU128     -0.2867
     31  CB        69.3730   22.2110   77.0270 C.3   128  LEU128      0.0270
     32  CG        69.6130   21.3020   78.2360 C.3   128  LEU128      0.0019
     33  CD1       68.5560   21.5620   79.2980 C.3   128  LEU128      0.0001
     34  CD2       69.5890   19.8510   77.7920 C.3   128  LEU128      0.0001
     35  N         66.9840   24.0990   73.9510 N.3   130  MET130     -0.1245
     36  CA        65.9040   25.0530   74.1720 C.3   130  MET130      0.1570
     37  C         66.4580   26.3710   74.7060 C.2   130  MET130      0.2261
     38  O         65.7370   27.1660   75.3170 O.2   130  MET130     -0.2867
     39  CB        64.8270   24.4830   75.1260 C.3   130  MET130      0.0387
     40  CG        65.2960   23.5280   76.2590 C.3   130  MET130      0.0595
     41  SD        65.9790   21.9050   75.7000 S.3   130  MET130     -0.1393
     42  CE        64.6130   21.2600   74.4970 C.3   130  MET130      0.0692
     43  N         57.8790   27.5000   77.3850 N.3   257  HIS257     -0.1226
     44  CA        57.5840   26.2240   76.7450 C.3   257  HIS257      0.1752
     45  C         57.1090   25.2600   77.8440 C.2   257  HIS257      0.2597
     46  O         57.4860   25.4110   79.0030 O.2   257  HIS257     -0.2718
     47  CB        58.8420   25.6580   76.0580 C.3   257  HIS257      0.0759
     48  CG        59.1980   26.3460   74.7740 C.ar  257  HIS257      0.0818
     49  ND1       60.3150   27.1620   74.6510 N.ar  257  HIS257     -0.2268
     50  CD2       58.5560   26.4210   73.5850 C.ar  257  HIS257      0.1154
     51  CE1       60.3190   27.7160   73.4470 C.ar  257  HIS257      0.1986
     52  NE2       59.2620   27.2850   72.7890 N.ar  257  HIS257     -0.2212
     53  N         56.2520   24.3000   77.5060 N.am  258  THR258     -0.1939
     54  CA        55.8270   23.3180   78.5110 C.3   258  THR258      0.2028
     55  C         55.5070   21.9620   77.8980 C.2   258  THR258      0.2642
     56  O         55.1930   21.8630   76.7170 O.2   258  THR258     -0.2714
     57  CB        54.5740   23.7810   79.3310 C.3   258  THR258      0.1808
     58  OG1       53.3700   23.4960   78.5990 O.3   258  THR258     -0.2208
     59  CG2       54.6830   25.2660   79.6590 C.3   258  THR258      0.0379
     60  N         55.6130   20.9130   78.6980 N.am  259  VAL259     -0.1977
     61  CA        55.2720   19.5880   78.2250 C.3   259  VAL259      0.1596
     62  C         54.4460   19.0090   79.3280 C.2   259  VAL259      0.2287
     63  O         54.3120   19.6260   80.3840 O.2   259  VAL259     -0.2864
     64  CB        56.5080   18.7020   77.9960 C.3   259  VAL259      0.0276
     65  CG1       57.2440   19.2010   76.7670 C.3   259  VAL259      0.0022
     66  CG2       57.4380   18.7280   79.2250 C.3   259  VAL259      0.0022
     67  N         53.2780   12.9080   72.0190 N.3   268  TYR268     -0.1227
     68  CA        54.2460   13.9760   71.8530 C.3   268  TYR268      0.1736
     69  C         53.5390   15.3220   71.5730 C.2   268  TYR268      0.2596
     70  O         52.6350   15.4210   70.7340 O.2   268  TYR268     -0.2718
     71  CB        55.1880   13.6350   70.6980 C.3   268  TYR268      0.0548
     72  CG        56.2690   14.6670   70.4850 C.ar  268  TYR268     -0.0200
     73  CD1       57.4840   14.5700   71.1430 C.ar  268  TYR268     -0.0009
     74  CD2       56.0590   15.7540   69.6320 C.ar  268  TYR268     -0.0009
     75  CE1       58.4750   15.5500   70.9630 C.ar  268  TYR268      0.0417
     76  CE2       57.0340   16.7280   69.4560 C.ar  268  TYR268      0.0417
     77  CZ        58.2320   16.6200   70.1230 C.ar  268  TYR268      0.1957
     78  OH        59.1850   17.6010   70.0190 O.3   268  TYR268     -0.2866
     79  N         53.9630   16.3550   72.2860 N.am  269  GLY269     -0.1942
     80  CA        53.3910   17.6730   72.0770 C.3   269  GLY269      0.2014
     81  C         53.7150   18.6660   73.1700 C.2   269  GLY269      0.2639
     82  O         54.2700   18.3230   74.1950 O.2   269  GLY269     -0.2714
     83  N         53.3790   19.9170   72.9520 N.am  270  GLY270     -0.1939
     84  CA        53.6680   20.8870   73.9820 C.3   270  GLY270      0.2014
     85  C         53.2170   22.2820   73.6160 C.2   270  GLY270      0.2640
     86  O         52.6510   22.5140   72.5330 O.2   270  GLY270     -0.2714
     87  N         53.5040   23.2190   74.5050 N.am  271  SER271     -0.1935
     88  CA        53.0900   24.5950   74.2830 C.3   271  SER271      0.2055
     89  C         54.2400   25.5550   74.0780 C.2   271  SER271      0.2643
     90  O         55.3860   25.2360   74.3260 O.2   271  SER271     -0.2714
     91  CB        52.3060   25.0870   75.4860 C.3   271  SER271      0.2130
     92  OG        53.2250   25.2730   76.5500 O.3   271  SER271     -0.2179
     93  N         53.9000   26.7480   73.6300 N.am  272  PHE272     -0.1973
     94  CA        54.8800   27.7940   73.4440 C.3   272  PHE272      0.1639
     95  C         54.1360   29.0750   73.7480 C.2   272  PHE272      0.2290
     96  O         52.9660   29.1900   73.4300 O.2   272  PHE272     -0.2864
     97  CB        55.4720   27.7800   72.0190 C.3   272  PHE272      0.0560
     98  CG        54.5660   28.2980   70.9670 C.ar  272  PHE272     -0.0200
     99  CD1       54.4320   29.6650   70.7630 C.ar  272  PHE272     -0.0042
    100  CD2       53.8880   27.4210   70.1340 C.ar  272  PHE272     -0.0042
    101  CE1       53.6370   30.1540   69.7300 C.ar  272  PHE272     -0.0003
    102  CE2       53.0860   27.9010   69.0890 C.ar  272  PHE272     -0.0003
    103  CZ        52.9660   29.2710   68.8920 C.ar  272  PHE272     -0.0000
    104  N         51.4050   22.1670   70.1160 N.3   288  VAL288     -0.1245
    105  CA        51.8260   21.2090   69.1210 C.3   288  VAL288      0.1561
    106  C         51.5220   19.7800   69.5520 C.2   288  VAL288      0.2260
    107  O         51.6100   19.4320   70.7320 O.2   288  VAL288     -0.2867
    108  CB        53.3350   21.3440   68.8330 C.3   288  VAL288      0.0252
    109  CG1       53.7920   20.2120   67.9250 C.3   288  VAL288      0.0019
    110  CG2       53.6180   22.6980   68.1670 C.3   288  VAL288      0.0019
    111  N         63.7170   19.9300   65.5500 N.3   358  VAL358     -0.1231
    112  CA        62.5650   19.8430   66.4350 C.3   358  VAL358      0.1678
    113  C         62.7220   20.1700   67.9040 C.2   358  VAL358      0.2434
    114  O         61.8170   20.7450   68.4960 O.2   358  VAL358     -0.2733
    115  CB        61.7770   18.4880   66.2930 C.3   358  VAL358      0.0265
    116  CG1       61.8590   17.9890   64.8920 C.3   358  VAL358      0.0020
    117  CG2       62.2220   17.4910   67.3100 C.3   358  VAL358      0.0020
    118  N         63.8680   19.8320   68.5120 N.am  359  PRO359     -0.2729
    119  CA        64.0310   20.1470   69.9460 C.3   359  PRO359      0.1401
    120  C         64.2220   21.6420   70.2250 C.2   359  PRO359      0.2269
    121  O         63.9730   22.1220   71.3330 O.2   359  PRO359     -0.2865
    122  CB        65.2260   19.2670   70.3740 C.3   359  PRO359      0.0296
    123  CG        65.9420   18.9190   69.1310 C.3   359  PRO359      0.0237
    124  CD        64.9110   18.9070   68.0180 C.3   359  PRO359      0.0939
    125  N         62.6840   23.6860   68.1180 N.3   361  ILE361     -0.1245
    126  CA        61.4480   24.1280   67.4790 C.3   361  ILE361      0.1561
    127  C         61.8200   25.2320   66.4850 C.2   361  ILE361      0.2260
    128  O         61.1960   26.2880   66.4280 O.2   361  ILE361     -0.2867
    129  CB        60.3820   24.6990   68.4390 C.3   361  ILE361      0.0252
    130  CG1       60.2760   23.8760   69.7280 C.3   361  ILE361      0.0019
    131  CG2       59.0410   24.6280   67.7380 C.3   361  ILE361      0.0019
    132  CD1       59.1290   24.3310   70.6050 C.3   361  ILE361      0.0001
    133  N         66.7980   12.9960   69.3740 N.3   418  ILE418     -0.1231
    134  CA        65.9260   13.4700   70.4170 C.3   418  ILE418      0.1692
    135  C         64.4460   13.1110   70.2340 C.2   418  ILE418      0.2591
    136  O         63.8620   12.5200   71.1300 O.2   418  ILE418     -0.2718
    137  CB        66.1460   14.9740   70.6460 C.3   418  ILE418      0.0266
    138  CG1       67.5950   15.2060   71.1120 C.3   418  ILE418      0.0019
    139  CG2       65.2110   15.4780   71.7400 C.3   418  ILE418      0.0020
    140  CD1       67.9290   16.6760   71.4350 C.3   418  ILE418      0.0001
    141  N         63.8380   13.4180   69.0900 N.am  419  ARG419     -0.1980
    142  CA        62.4240   13.0600   68.8890 C.3   419  ARG419      0.1597
    143  C         62.0950   11.5580   68.9300 C.2   419  ARG419      0.2287
    144  O         61.0820   11.1620   69.5170 O.2   419  ARG419     -0.2864
    145  CB        61.8830   13.6160   67.5600 C.3   419  ARG419      0.0334
    146  CG        60.7100   14.5540   67.7400 C.3   419  ARG419      0.0492
    147  CD        59.3840   14.0190   67.2520 C.3   419  ARG419      0.2205
    148  NE        58.7270   13.0620   68.1380 N.pl3 419  ARG419     -0.0865
    149  CZ        57.4530   12.6960   67.9960 C.cat 419  ARG419      0.5346
    150  NH1       56.7150   13.2140   67.0240 N.pl3 419  ARG419      0.1354
    151  NH2       56.9260   11.7910   68.7920 N.pl3 419  ARG419      0.1354
    152  N         61.6660    9.4410   72.1300 N.3   422  CYS422     -0.1235
    153  CA        60.4260    9.5930   72.8890 C.3   422  CYS422      0.1677
    154  C         59.5090    8.3950   72.7760 C.2   422  CYS422      0.2270
    155  O         58.4290    8.3910   73.3650 O.2   422  CYS422     -0.2867
    156  CB        59.6720   10.8330   72.4370 C.3   422  CYS422      0.0956
    157  SG        60.4890   12.3710   72.8450 S.3   422  CYS422     -0.0801
    158  N         57.5600   10.7840   76.4320 N.3   428  VAL428     -0.1245
    159  CA        58.2570   12.0610   76.3640 C.3   428  VAL428      0.1561
    160  C         59.2170   12.2880   77.5450 C.2   428  VAL428      0.2260
    161  O         60.1970   13.0400   77.4230 O.2   428  VAL428     -0.2867
    162  CB        57.2550   13.2790   76.2360 C.3   428  VAL428      0.0252
    163  CG1       56.3780   13.1420   74.9650 C.3   428  VAL428      0.0019
    164  CG2       56.3830   13.3910   77.4830 C.3   428  VAL428      0.0019
    165  N         62.3830   10.7950   76.6780 N.3   431  GLY431     -0.1210
    166  CA        63.0550   11.6410   75.7150 C.3   431  GLY431      0.1956
    167  C         63.8410   12.7240   76.4220 C.2   431  GLY431      0.2612
    168  O         64.9280   13.0970   76.0040 O.2   431  GLY431     -0.2717
    169  N         63.2800   13.2480   77.4970 N.am  432  MET432     -0.1965
    170  CA        63.9680   14.2740   78.2640 C.3   432  MET432      0.1736
    171  C         65.2070   13.6760   78.9150 C.2   432  MET432      0.2616
    172  O         66.2710   14.2850   78.9210 O.2   432  MET432     -0.2715
    173  CB        63.0290   14.8480   79.3210 C.3   432  MET432      0.0427
    174  CG        61.8440   15.5620   78.6660 C.3   432  MET432      0.0599
    175  SD        60.8740   16.5860   79.7820 S.3   432  MET432     -0.1393
    176  CE        59.7190   15.4470   80.3050 C.3   432  MET432      0.0692
    177  N         65.0730   12.4670   79.4350 N.am  433  ILE433     -0.1977
    178  CA        66.1950   11.8250   80.0840 C.3   433  ILE433      0.1596
    179  C         67.2890   11.5710   79.0490 C.2   433  ILE433      0.2287
    180  O         68.4770   11.8140   79.2870 O.2   433  ILE433     -0.2864
    181  CB        65.7430   10.5170   80.7530 C.3   433  ILE433      0.0276
    182  CG1       64.8040   10.8600   81.9060 C.3   433  ILE433      0.0022
    183  CG2       66.9600    9.6990   81.2210 C.3   433  ILE433      0.0022
    184  CD1       64.1790    9.6440   82.5730 C.3   433  ILE433      0.0001
    185  N         67.8050   13.2430   76.4070 N.3   435  THR435     -0.1203
    186  CA        68.3610   14.5420   76.0290 C.3   435  THR435      0.1994
    187  C         69.4050   15.0010   77.0720 C.2   435  THR435      0.2618
    188  O         70.3920   15.6220   76.7080 O.2   435  THR435     -0.2717
    189  CB        67.2320   15.6580   75.9650 C.3   435  THR435      0.1784
    190  OG1       66.2270   15.3000   75.0120 O.3   435  THR435     -0.2211
    191  CG2       67.8110   17.0010   75.5870 C.3   435  THR435      0.0376
    192  N         69.1900   14.7260   78.3570 N.am  436  GLY436     -0.1942
    193  CA        70.1610   15.1550   79.3550 C.3   436  GLY436      0.2014
    194  C         71.4810   14.3930   79.2690 C.2   436  GLY436      0.2638
    195  O         72.5570   14.9200   79.5740 O.2   436  GLY436     -0.2714
    196  N         71.3960   13.1540   78.8250 N.am  437  ILE437     -0.1977
    197  CA        72.5520   12.2940   78.7270 C.3   437  ILE437      0.1596
    198  C         73.3110   12.4450   77.4430 C.2   437  ILE437      0.2287
    199  O         74.4810   12.8390   77.4430 O.2   437  ILE437     -0.2864
    200  CB        72.1660   10.8210   78.8130 C.3   437  ILE437      0.0276
    201  CG1       71.4610   10.5490   80.1300 C.3   437  ILE437      0.0022
    202  CG2       73.4060    9.9380   78.6540 C.3   437  ILE437      0.0022
    203  CD1       70.7310    9.2360   80.1300 C.3   437  ILE437      0.0001
    204  N         72.9260   16.9930   76.2200 N.3   440  TRP440     -0.1227
    205  CA        73.5440   17.8780   77.1870 C.3   440  TRP440      0.1737
    206  C         74.9690   17.4360   77.5460 C.2   440  TRP440      0.2595
    207  O         75.8720   18.2700   77.6490 O.2   440  TRP440     -0.2718
    208  CB        72.7200   17.9690   78.4640 C.3   440  TRP440      0.0564
    209  CG        73.3260   18.9360   79.4380 C.ar  440  TRP440      0.0003
    210  CD1       73.6320   20.2530   79.2090 C.ar  440  TRP440      0.0946
    211  CD2       73.7160   18.6650   80.7920 C.ar  440  TRP440      0.0152
    212  NE1       74.1820   20.8150   80.3380 N.ar  440  TRP440     -0.2442
    213  CE2       74.2430   19.8650   81.3230 C.ar  440  TRP440      0.0810
    214  CE3       73.6720   17.5250   81.6070 C.ar  440  TRP440      0.0012
    215  CZ2       74.7160   19.9560   82.6340 C.ar  440  TRP440      0.0191
    216  CZ3       74.1420   17.6140   82.9030 C.ar  440  TRP440      0.0001
    217  CH2       74.6580   18.8250   83.4090 C.ar  440  TRP440      0.0015
    218  N         75.1870   16.1380   77.7380 N.am  441  ILE441     -0.1980
    219  CA        76.5380   15.6980   78.0880 C.3   441  ILE441      0.1595
    220  C         77.3980   15.3110   76.8910 C.2   441  ILE441      0.2287
    221  O         78.5530   15.7150   76.8110 O.2   441  ILE441     -0.2864
    222  CB        76.5120   14.5420   79.1300 C.3   441  ILE441      0.0276
    223  CG1       76.0700   15.0950   80.4970 C.3   441  ILE441      0.0022
    224  CG2       77.8770   13.8990   79.2440 C.3   441  ILE441      0.0022
    225  CD1       75.9270   14.0260   81.5940 C.3   441  ILE441      0.0001
@<TRIPOS>BOND
     1   116   115    1
     2   111   112    1
     3   115   112    1
     4   115   117    1
     5   128   127    2
     6   112   113    1
     7   127   126    1
     8   150   149    1
     9   147   146    1
    10   147   148    1
    11   126   125    1
    12   126   129    1
    13   145   146    1
    14   145   142    1
    15   131   129    1
    16   113   114    2
    17   113   118   am
    18   109   108    1
    19   149   148    2
    20   149   151    1
    21   124   118    1
    22   124   123    1
    23   110   108    1
    24   129   130    1
    25   118   119    1
    26   108   105    1
    27   142   143    1
    28   142   141    1
    29   103   102   ar
    30   103   101   ar
    31   143   144    2
    32   102   100   ar
    33   141   135   am
    34   105   106    1
    35   105   104    1
    36   123   122    1
    37   133   134    1
    38    76    74   ar
    39    76    77   ar
    40   106   107    2
    41    74    72   ar
    42   130   132    1
    43   101    99   ar
    44   119   120    1
    45   119   122    1
    46    78    77    1
    47    77    75   ar
    48   100    98   ar
    49   120   121    2
    50   135   134    1
    51   135   136    2
    52   134   137    1
    53    72    71    1
    54    72    73   ar
    55   137   138    1
    56   137   139    1
    57    71    68    1
    58    70    69    2
    59    99    98   ar
    60    75    73   ar
    61    98    97    1
    62   138   140    1
    63    69    68    1
    64    69    79   am
    65    68    67    1
    66    97    94    1
    67    80    79    1
    68    80    81    1
    69   152   153    1
    70   156   157    1
    71   156   153    1
    72    86    85    2
    73   154   153    1
    74   154   155    2
    75    52    51   ar
    76    52    50   ar
    77    83    81   am
    78    83    84    1
    79    81    82    2
    80    96    95    2
    81    94    93    1
    82    94    95    1
    83    51    49   ar
    84    50    48   ar
    85    85    84    1
    86    85    87   am
    87    93    89   am
    88    35    36    1
    89    89    88    1
    90    89    90    2
    91    36    37    1
    92    36    39    1
    93    88    87    1
    94    88    91    1
    95    42    41    1
    96    30    29    2
    97    49    48   ar
    98    37    38    2
    99    29    28    1
   100    48    47    1
   101   163   162    1
   102   190   189    1
   103    39    40    1
   104    91    92    1
   105   191   189    1
   106    41    40    1
   107   166   167    1
   108   166   165    1
   109   189   186    1
   110    28    27    1
   111    28    31    1
   112   168   167    2
   113   186   185    1
   114   186   187    1
   115    47    44    1
   116   204   205    1
   117   162   159    1
   118   162   164    1
   119   159   158    1
   120   159   160    1
   121   167   169   am
   122   188   187    2
   123    56    55    2
   124    44    43    1
   125    44    45    1
   126    65    64    1
   127   221   220    2
   128   220   219    1
   129    31    32    1
   130   187   192   am
   131   205   206    1
   132   205   208    1
   133   161   160    2
   134   199   198    2
   135   198   197    1
   136   169   170    1
   137    53    45   am
   138    53    54    1
   139   206   207    2
   140   206   218   am
   141     9     7   ar
   142     9    11   ar
   143   218   219    1
   144    34    32    1
   145    45    46    2
   146    55    54    1
   147    55    60   am
   148    64    61    1
   149    64    66    1
   150   219   222    1
   151     7     6   ar
   152    61    60    1
   153    61    62    1
   154    32    33    1
   155    11    10   ar
   156   170   171    1
   157   170   173    1
   158   192   193    1
   159   208   209    1
   160    54    57    1
   161    58    57    1
   162   202   200    1
   163   174   173    1
   164   174   175    1
   165   197   200    1
   166   197   196    1
   167   200   201    1
   168   196   194   am
   169   171   172    2
   170   171   177   am
   171   179   180    2
   172   179   178    1
   173   222   224    1
   174   222   223    1
   175   210   209   ar
   176   210   212   ar
   177   194   193    1
   178   194   195    2
   179    62    63    2
   180    57    59    1
   181     6     5    1
   182     6     8   ar
   183   177   178    1
   184    10     8   ar
   185   209   211   ar
   186   175   176    1
   187     5     2    1
   188   178   181    1
   189   203   201    1
   190   212   213   ar
   191   223   225    1
   192     2     1    1
   193     2     3    1
   194   181   183    1
   195   181   182    1
   196   211   213   ar
   197   211   214   ar
   198   213   215   ar
   199   214   216   ar
   200     3     4    2
   201   182   184    1
   202   215   217   ar
   203    25    24    1
   204    17    19    1
   205    17    16    1
   206   216   217   ar
   207    13    12    1
   208    13    16    1
   209    13    14    1
   210    24    26    1
   211    24    21    1
   212    18    16    1
   213    23    22    2
   214    14    15    2
   215    22    21    1
   216    21    20    1
