@<TRIPOS>MOLECULE
tmp/2gmkA01.pdb
 84 83 0 0 0
SMALL
GASTEIGER

@<TRIPOS>ATOM
      1  N        -15.9840   -1.3190  -11.7170 N.3     8  LYS8       -0.1231
      2  CA       -16.4090   -0.3390  -10.7090 C.3     8  LYS8        0.1693
      3  C        -15.2820    0.5810  -10.2460 C.2     8  LYS8        0.2592
      4  O        -15.5510    1.7000   -9.7740 O.2     8  LYS8       -0.2718
      5  CB       -16.9800   -1.0430   -9.4860 C.3     8  LYS8        0.0285
      6  CG       -18.3540   -1.6850   -9.7060 C.3     8  LYS8        0.0035
      7  CD       -18.7750   -2.3170   -8.3930 C.3     8  LYS8        0.0206
      8  CE       -20.1210   -2.9860   -8.4570 C.3     8  LYS8        0.1093
      9  NZ       -20.3180   -3.8140   -7.2100 N.3     8  LYS8       -0.1314
     10  N        -14.0350    0.1150  -10.3540 N.am    9  HIS9       -0.1976
     11  CA       -12.9490    0.8070   -9.6540 C.3     9  HIS9        0.1656
     12  C        -11.6480    1.0640  -10.3690 C.2     9  HIS9        0.2291
     13  O        -10.7090    1.5430   -9.7410 O.2     9  HIS9       -0.2864
     14  CB       -12.6500    0.1050   -8.3420 C.3     9  HIS9        0.0771
     15  CG       -13.8080    0.1320   -7.4100 C.ar    9  HIS9        0.0820
     16  ND1      -14.2340    1.2940   -6.8020 N.ar    9  HIS9       -0.2267
     17  CD2      -14.6510   -0.8430   -7.0000 C.ar    9  HIS9        0.1154
     18  CE1      -15.2970    1.0320   -6.0580 C.ar    9  HIS9        0.1986
     19  NE2      -15.5680   -0.2560   -6.1600 N.ar    9  HIS9       -0.2212
     20  N        -25.5300    6.4640   -7.1560 N.3    30  LYS30      -0.1245
     21  CA       -25.1410    6.3850   -5.7370 C.3    30  LYS30       0.1561
     22  C        -24.2860    7.5880   -5.3280 C.2    30  LYS30       0.2260
     23  O        -23.7320    8.2830   -6.1990 O.2    30  LYS30      -0.2867
     24  CB       -24.3820    5.0810   -5.4460 C.3    30  LYS30       0.0271
     25  CG       -23.0080    5.0190   -6.0800 C.3    30  LYS30       0.0035
     26  CD       -22.4500    3.5990   -6.0520 C.3    30  LYS30       0.0206
     27  CE       -22.2430    3.0800   -4.6560 C.3    30  LYS30       0.1093
     28  NZ       -21.8700    1.6220   -4.7250 N.3    30  LYS30      -0.1314
     29  N        -21.2980    8.1230   -3.9400 N.3    32  LYS32      -0.1231
     30  CA       -19.8310    8.1940   -4.0500 C.3    32  LYS32       0.1693
     31  C        -19.2350    6.9640   -4.7320 C.2    32  LYS32       0.2592
     32  O        -19.7330    5.8590   -4.5380 O.2    32  LYS32      -0.2718
     33  CB       -19.2370    8.3110   -2.6370 C.3    32  LYS32       0.0285
     34  CG       -17.7790    8.7740   -2.5940 C.3    32  LYS32       0.0035
     35  CD       -17.2630    8.9800   -1.1660 C.3    32  LYS32       0.0206
     36  CE       -15.7450    9.1780   -1.1830 C.3    32  LYS32       0.1093
     37  NZ       -15.1460    9.6010    0.1210 N.3    32  LYS32      -0.1314
     38  N        -18.1440    7.1450   -5.4630 N.am   33  ASN33      -0.1974
     39  CA       -17.3620    6.0080   -5.9340 C.3    33  ASN33       0.1688
     40  C        -15.9390    6.4400   -6.1520 C.2    33  ASN33       0.2292
     41  O        -15.7030    7.5430   -6.6330 O.2    33  ASN33      -0.2864
     42  CB       -17.9280    5.4110   -7.2280 C.3    33  ASN33       0.1181
     43  CG       -17.2910    4.0780   -7.5780 C.2    33  ASN33       0.2629
     44  OD1      -17.6040    3.0500   -6.9760 O.2    33  ASN33      -0.2716
     45  ND2      -16.3880    4.0890   -8.5440 N.am   33  ASN33      -0.0877
     46  N        -11.6170   -7.7890   -4.9200 N.3    95  VAL95      -0.1231
     47  CA       -13.0260   -8.0060   -5.2340 C.3    95  VAL95       0.1692
     48  C        -13.9580   -6.9550   -4.6700 C.2    95  VAL95       0.2592
     49  O        -15.1090   -6.9210   -5.0500 O.2    95  VAL95      -0.2718
     50  CB       -13.5290   -9.4170   -4.8140 C.3    95  VAL95       0.0266
     51  CG1      -12.7400  -10.5060   -5.5550 C.3    95  VAL95       0.0020
     52  CG2      -13.4130   -9.5920   -3.2850 C.3    95  VAL95       0.0020
     53  N        -13.4710   -6.1220   -3.7500 N.am   96  HIS96      -0.1962
     54  CA       -14.2470   -4.9830   -3.2640 C.3    96  HIS96       0.1787
     55  C        -13.3040   -3.8460   -2.9360 C.2    96  HIS96       0.2620
     56  O        -12.1600   -4.0830   -2.5450 O.2    96  HIS96      -0.2715
     57  CB       -15.0430   -5.3390   -1.9960 C.3    96  HIS96       0.0785
     58  CG       -16.2910   -6.1120   -2.2700 C.ar   96  HIS96       0.0821
     59  ND1      -17.3640   -5.5770   -2.9460 N.ar   96  HIS96      -0.2267
     60  CD2      -16.6370   -7.3820   -1.9530 C.ar   96  HIS96       0.1154
     61  CE1      -18.3180   -6.4870   -3.0380 C.ar   96  HIS96       0.1986
     62  NE2      -17.8980   -7.5910   -2.4510 N.ar   96  HIS96      -0.2212
     63  N        -13.7890   -2.6100   -3.0790 N.am   97  PHE97      -0.1960
     64  CA       -13.0310   -1.4580   -2.6550 C.3    97  PHE97       0.1771
     65  C        -13.4590   -1.1050   -1.2370 C.2    97  PHE97       0.2619
     66  O        -14.6530   -0.9000   -0.9860 O.2    97  PHE97      -0.2715
     67  CB       -13.2830   -0.2770   -3.5950 C.3    97  PHE97       0.0574
     68  CG       -12.2900    0.8370   -3.4290 C.ar   97  PHE97      -0.0200
     69  CD1      -12.5140    1.8570   -2.5060 C.ar   97  PHE97      -0.0042
     70  CD2      -11.1240    0.8670   -4.2030 C.ar   97  PHE97      -0.0042
     71  CE1      -11.5820    2.8980   -2.3300 C.ar   97  PHE97      -0.0003
     72  CE2      -10.1980    1.8860   -4.0380 C.ar   97  PHE97      -0.0003
     73  CZ       -10.4220    2.9060   -3.1120 C.ar   97  PHE97      -0.0000
     74  N        -12.4960   -1.0240   -0.3220 N.am   98  VAL98      -0.1963
     75  CA       -12.8050   -0.7770    1.0940 C.3    98  VAL98       0.1727
     76  C        -12.7000    0.6910    1.4750 C.2    98  VAL98       0.2616
     77  O        -13.6320    1.2630    2.0570 O.2    98  VAL98      -0.2715
     78  CB       -11.9530   -1.6650    2.0200 C.3    98  VAL98       0.0290
     79  CG1      -12.1360   -1.2880    3.5080 C.3    98  VAL98       0.0023
     80  CG2      -12.3410   -3.1050    1.7740 C.3    98  VAL98       0.0023
     81  N        -11.5720    1.2950    1.1530 N.am   99  GLY99      -0.1955
     82  CA       -11.4130    2.6990    1.4790 C.3    99  GLY99       0.1869
     83  C        -10.1380    3.3010    0.9820 C.2    99  GLY99       0.2309
     84  O         -9.2820    2.6150    0.4180 O.2    99  GLY99      -0.2863
@<TRIPOS>BOND
     1     1     2    1
     2     2     3    1
     3     2     5    1
     4    12    13    2
     5    12    11    1
     6    10     3   am
     7    10    11    1
     8     3     4    2
     9     6     5    1
    10     6     7    1
    11    11    14    1
    12    45    43   am
    13     8     7    1
    14     8     9    1
    15    14    15    1
    16    43    42    1
    17    43    44    2
    18    15    17   ar
    19    15    16   ar
    20    42    39    1
    21    20    21    1
    22    17    19   ar
    23    16    18   ar
    24    41    40    2
    25    23    22    2
    26    19    18   ar
    27    40    39    1
    28    25    26    1
    29    25    24    1
    30    26    27    1
    31    39    38    1
    32    21    24    1
    33    21    22    1
    34    51    50    1
    35    38    31   am
    36    47    46    1
    37    47    50    1
    38    47    48    1
    39    49    48    2
    40    50    52    1
    41    31    32    2
    42    31    30    1
    43    28    27    1
    44    48    53   am
    45    70    72   ar
    46    70    68   ar
    47    30    29    1
    48    30    33    1
    49    72    73   ar
    50    53    54    1
    51    67    68    1
    52    67    64    1
    53    68    69   ar
    54    54    55    1
    55    54    57    1
    56    73    71   ar
    57    63    55   am
    58    63    64    1
    59    61    59   ar
    60    61    62   ar
    61    59    58   ar
    62    55    56    2
    63    64    65    1
    64    33    34    1
    65    34    35    1
    66    69    71   ar
    67    62    60   ar
    68    58    57    1
    69    58    60   ar
    70    65    66    2
    71    65    74   am
    72    36    35    1
    73    36    37    1
    74    74    75    1
    75    84    83    2
    76    83    82    1
    77    75    76    1
    78    75    78    1
    79    81    76   am
    80    81    82    1
    81    76    77    2
    82    80    78    1
    83    78    79    1
