@<TRIPOS>MOLECULE
tmp/2gmmB00.pdb
 101 96 0 0 0
SMALL
GASTEIGER

@<TRIPOS>ATOM
      1  N         39.9600    5.0280  -43.9930 N.3    44  SER44      -0.1217
      2  CA        39.8470    6.1560  -43.0730 C.3    44  SER44       0.1889
      3  C         38.5480    6.2050  -42.2770 C.2    44  SER44       0.2288
      4  O         37.7500    7.1270  -42.4400 O.2    44  SER44      -0.2866
      5  CB        40.0050    7.4660  -43.8520 C.3    44  SER44       0.2089
      6  OG        41.2360    7.4960  -44.5480 O.3    44  SER44      -0.2183
      7  N         36.7670    5.1950  -38.1960 N.3    46  VAL46      -0.1245
      8  CA        36.9330    4.7820  -36.8080 C.3    46  VAL46       0.1561
      9  C         35.5670    4.8000  -36.1330 C.2    46  VAL46       0.2260
     10  O         34.7640    5.7020  -36.3690 O.2    46  VAL46      -0.2867
     11  CB        37.8710    5.7410  -36.0350 C.3    46  VAL46       0.0252
     12  CG1       38.0330    5.2670  -34.5980 C.3    46  VAL46       0.0019
     13  CG2       39.2260    5.8140  -36.7190 C.3    46  VAL46       0.0019
     14  N         42.6960   -4.2130  -42.6740 N.3    84  ALA84      -0.1231
     15  CA        43.2370   -3.5460  -41.4960 C.3    84  ALA84       0.1694
     16  C         42.1520   -2.6580  -40.8930 C.2    84  ALA84       0.2592
     17  O         41.1530   -2.3830  -41.5510 O.2    84  ALA84      -0.2718
     18  CB        44.4490   -2.7040  -41.8920 C.3    84  ALA84       0.0304
     19  N         42.3480   -2.1790  -39.6650 N.am   85  ASP85      -0.1974
     20  CA        43.5370   -2.4390  -38.8510 C.3    85  ASP85       0.1709
     21  C         43.2980   -3.4060  -37.6950 C.2    85  ASP85       0.2293
     22  O         44.1950   -4.1540  -37.3020 O.2    85  ASP85      -0.2864
     23  CB        44.0700   -1.1110  -38.3140 C.3    85  ASP85       0.1436
     24  CG        44.8570   -0.3440  -39.3590 C.2    85  ASP85       0.3671
     25  OD1       46.0850   -0.5440  -39.4230 O.co2  85  ASP85      -0.2456
     26  OD2       44.2490    0.4270  -40.1360 O.co2  85  ASP85      -0.2456
     27  N         42.9960   11.9960  -33.8920 N.3   101  GLY101     -0.1225
     28  CA        44.0940   11.3480  -34.5900 C.3   101  GLY101      0.1811
     29  C         44.3870    9.9050  -34.2040 C.2   101  GLY101      0.2280
     30  O         45.5100    9.4360  -34.3820 O.2   101  GLY101     -0.2866
     31  N         43.1870    7.1940  -35.6130 N.3   103  GLY103     -0.1210
     32  CA        42.8190    6.2830  -36.6850 C.3   103  GLY103      0.1956
     33  C         43.8820    5.2490  -37.0160 C.2   103  GLY103      0.2612
     34  O         44.9420    5.2230  -36.4030 O.2   103  GLY103     -0.2717
     35  N         43.5940    4.3920  -37.9890 N.am  104  GLY104     -0.1942
     36  CA        44.5470    3.3720  -38.3920 C.3   104  GLY104      0.2014
     37  C         45.0130    2.4500  -37.2800 C.2   104  GLY104      0.2639
     38  O         44.2050    1.9290  -36.5090 O.2   104  GLY104     -0.2714
     39  N         46.3250    2.2560  -37.1990 N.am  105  GLY105     -0.1939
     40  CA        46.9050    1.3810  -36.1920 C.3   105  GLY105      0.2014
     41  C         46.6370    1.7490  -34.7420 C.2   105  GLY105      0.2638
     42  O         46.9440    0.9700  -33.8400 O.2   105  GLY105     -0.2714
     43  N         46.0750    2.9290  -34.5040 N.am  106  LEU106     -0.1977
     44  CA        45.7810    3.3490  -33.1400 C.3   106  LEU106      0.1596
     45  C         44.3860    2.8740  -32.7220 C.2   106  LEU106      0.2287
     46  O         43.9560    3.0880  -31.5910 O.2   106  LEU106     -0.2864
     47  CB        45.9320    4.8700  -33.0090 C.3   106  LEU106      0.0297
     48  CG        47.3580    5.3500  -33.3130 C.3   106  LEU106      0.0022
     49  CD1       47.4550    6.8660  -33.1690 C.3   106  LEU106      0.0001
     50  CD2       48.3350    4.6620  -32.3660 C.3   106  LEU106      0.0001
     51  N         46.9790   -5.5160  -38.8980 N.3   123  PHE123     -0.1227
     52  CA        47.8630   -4.5660  -39.5800 C.3   123  PHE123      0.1736
     53  C         49.3400   -4.8970  -39.3880 C.2   123  PHE123      0.2595
     54  O         49.7140   -5.5890  -38.4440 O.2   123  PHE123     -0.2718
     55  CB        47.5840   -3.1290  -39.0950 C.3   123  PHE123      0.0547
     56  CG        47.9380   -2.8790  -37.6410 C.ar  123  PHE123     -0.0202
     57  CD1       49.2680   -2.8550  -37.2210 C.ar  123  PHE123     -0.0042
     58  CD2       46.9390   -2.6680  -36.6960 C.ar  123  PHE123     -0.0042
     59  CE1       49.5980   -2.6260  -35.8820 C.ar  123  PHE123     -0.0003
     60  CE2       47.2560   -2.4370  -35.3520 C.ar  123  PHE123     -0.0003
     61  CZ        48.5890   -2.4170  -34.9460 C.ar  123  PHE123     -0.0000
     62  N         50.1780   -4.3900  -40.2880 N.am  124  TYR124     -0.1976
     63  CA        51.6140   -4.6350  -40.2150 C.3   124  TYR124      0.1639
     64  C         52.3670   -3.4180  -39.6860 C.2   124  TYR124      0.2290
     65  O         52.3080   -2.3360  -40.2710 O.2   124  TYR124     -0.2864
     66  CB        52.1580   -5.0100  -41.5970 C.3   124  TYR124      0.0560
     67  CG        51.6490   -6.3520  -42.1420 C.ar  124  TYR124     -0.0198
     68  CD1       50.9140   -7.2430  -41.4270 C.ar  124  TYR124     -0.0009
     69  CD2       51.9690   -6.6580  -43.4820 C.ar  124  TYR124     -0.0009
     70  CE1       50.4720   -8.4350  -41.9800 C.ar  124  TYR124      0.0417
     71  CE2       51.5460   -7.8340  -44.0450 C.ar  124  TYR124      0.0417
     72  CZ        50.8000   -8.7100  -43.3090 C.ar  124  TYR124      0.1957
     73  OH        50.3680   -9.8440  -43.8600 O.3   124  TYR124     -0.2866
     74  N         40.1840    1.6890  -39.5450 N.3   210  SER210     -0.1202
     75  CA        40.8770    1.3150  -40.7700 C.3   210  SER210      0.2020
     76  C         41.5330    2.5900  -41.2780 C.2   210  SER210      0.2619
     77  O         40.8970    3.6450  -41.3030 O.2   210  SER210     -0.2717
     78  CB        39.9020    0.7970  -41.8360 C.3   210  SER210      0.2103
     79  OG        39.3080   -0.4370  -41.4700 O.3   210  SER210     -0.2182
     80  N         42.8070    2.4960  -41.6490 N.am  211  GLY211     -0.1942
     81  CA        43.5140    3.6450  -42.1850 C.3   211  GLY211      0.2014
     82  C         43.5470    3.5130  -43.7000 C.2   211  GLY211      0.2639
     83  O         42.4960    3.4770  -44.3440 O.2   211  GLY211     -0.2714
     84  N         44.7450    3.4210  -44.2710 N.am  212  GLU212     -0.1963
     85  CA        44.8940    3.2730  -45.7180 C.3   212  GLU212      0.1733
     86  C         44.3300    1.9130  -46.1560 C.2   212  GLU212      0.2616
     87  O         43.6660    1.8170  -47.1860 O.2   212  GLU212     -0.2715
     88  CB        46.3700    3.4010  -46.1150 C.3   212  GLU212      0.0429
     89  CG        46.6570    3.5530  -47.5590 C.3   212  GLU212      0.1163
     90  CD        48.1390    3.4500  -47.9140 C.2   212  GLU212      0.3649
     91  OE1       48.9550    3.3390  -46.9480 O.co2 212  GLU212     -0.2457
     92  OE2       48.4440    3.5420  -49.1020 O.co2 212  GLU212     -0.2457
     93  N         44.6190    0.8630  -45.3880 N.am  213  GLN213     -0.1977
     94  CA        44.0750   -0.4670  -45.6740 C.3   213  GLN213      0.1601
     95  C         42.7660   -0.5300  -44.8840 C.2   213  GLN213      0.2287
     96  O         42.6000    0.1960  -43.8970 O.2   213  GLN213     -0.2864
     97  CB        45.0190   -1.5810  -45.2020 C.3   213  GLN213      0.0394
     98  CG        46.2200   -1.8610  -46.1000 C.3   213  GLN213      0.0908
     99  CD        47.0800   -0.6420  -46.3410 C.2   213  GLN213      0.2608
    100  OE1       46.6560    0.3130  -46.9900 O.2   213  GLN213     -0.2717
    101  NE2       48.2960   -0.6620  -45.8100 N.am  213  GLN213     -0.0878
@<TRIPOS>BOND
     1    92    90   ar
     2    90    89    1
     3    90    91   ar
     4    89    88    1
     5    87    86    2
     6   100    99    2
     7    99    98    1
     8    99   101   am
     9    86    85    1
    10    86    93   am
    11    88    85    1
    12    98    97    1
    13    85    84    1
    14    94    93    1
    15    94    97    1
    16    94    95    1
    17    95    96    2
    18     6     5    1
    19    83    82    2
    20    84    82   am
    21    71    69   ar
    22    71    72   ar
    23     1     2    1
    24    73    72    1
    25     5     2    1
    26    82    81    1
    27    69    67   ar
    28    72    70   ar
    29     2     3    1
    30    14    15    1
    31     4     3    2
    32    81    80    1
    33    67    66    1
    34    67    68   ar
    35    70    68   ar
    36    18    15    1
    37    78    79    1
    38    78    75    1
    39    80    76   am
    40    66    63    1
    41    17    16    2
    42    15    16    1
    43    77    76    2
    44    76    75    1
    45    16    19   am
    46    75    74    1
    47    62    63    1
    48    62    53   am
    49    65    64    2
    50    63    64    1
    51    26    24   ar
    52    19    20    1
    53    52    53    1
    54    52    55    1
    55    52    51    1
    56    25    24   ar
    57    53    54    2
    58    24    23    1
    59    55    56    1
    60    20    23    1
    61    20    21    1
    62    36    35    1
    63    36    37    1
    64     7     8    1
    65    35    33   am
    66    21    22    2
    67    56    57   ar
    68    56    58   ar
    69    37    39   am
    70    37    38    2
    71    57    59   ar
    72    39    40    1
    73    33    32    1
    74    33    34    2
    75     8     9    1
    76     8    11    1
    77    13    11    1
    78    58    60   ar
    79    32    31    1
    80    10     9    2
    81    40    41    1
    82    11    12    1
    83    59    61   ar
    84    60    61   ar
    85    41    43   am
    86    41    42    2
    87    28    29    1
    88    28    27    1
    89    43    44    1
    90    30    29    2
    91    48    49    1
    92    48    47    1
    93    48    50    1
    94    44    47    1
    95    44    45    1
    96    45    46    2
