@<TRIPOS>MOLECULE
tmp/2gmpA00.pdb
 63 59 0 0 0
SMALL
GASTEIGER

@<TRIPOS>ATOM
      1  N          5.1510   17.5330    1.8610 N.3    44  SER44      -0.1202
      2  CA         5.2060   17.9410    0.4630 C.3    44  SER44       0.2020
      3  C          6.4720   17.5170   -0.2680 C.2    44  SER44       0.2619
      4  O          7.3110   18.3490   -0.6260 O.2    44  SER44      -0.2717
      5  CB         5.0330   19.4530    0.3710 C.3    44  SER44       0.2103
      6  OG         3.8100   19.8320    0.9710 O.3    44  SER44      -0.2182
      7  N          6.5980   16.2180   -0.5080 N.am   45  THR45      -0.1938
      8  CA         7.7690   15.6980   -1.1960 C.3    45  THR45       0.2028
      9  C          7.4600   14.5270   -2.1260 C.2    45  THR45       0.2642
     10  O          6.6140   13.6790   -1.8290 O.2    45  THR45      -0.2714
     11  CB         8.8350   15.2530   -0.1880 C.3    45  THR45       0.1808
     12  OG1        9.8940   14.5850   -0.8830 O.3    45  THR45      -0.2208
     13  CG2        8.2320   14.3190    0.8510 C.3    45  THR45       0.0379
     14  N          8.1540   14.5000   -3.2570 N.am   46  VAL46      -0.1977
     15  CA         7.9930   13.4470   -4.2470 C.3    46  VAL46       0.1596
     16  C          9.4050   13.0840   -4.6980 C.2    46  VAL46       0.2287
     17  O         10.2930   13.9350   -4.7030 O.2    46  VAL46      -0.2864
     18  CB         7.1930   13.9420   -5.4660 C.3    46  VAL46       0.0276
     19  CG1        6.9150   12.7930   -6.4120 C.3    46  VAL46       0.0022
     20  CG2        5.9140   14.5820   -5.0140 C.3    46  VAL46       0.0022
     21  N          2.1820   18.0040  -10.4650 N.3   101  GLY101     -0.1225
     22  CA         1.1790   17.8200   -9.4300 C.3   101  GLY101      0.1811
     23  C          0.9030   16.3750   -9.0470 C.2   101  GLY101      0.2280
     24  O         -0.2180   16.0440   -8.6660 O.2   101  GLY101     -0.2866
     25  N          2.0930   14.7860   -6.4930 N.3   103  GLY103     -0.1210
     26  CA         2.3630   14.5610   -5.0870 C.3   103  GLY103      0.1956
     27  C          1.2480   13.8530   -4.3420 C.2   103  GLY103      0.2612
     28  O          0.2520   13.4350   -4.9330 O.2   103  GLY103     -0.2717
     29  N          1.4250   13.7140   -3.0310 N.am  104  GLY104     -0.1942
     30  CA         0.4330   13.0520   -2.2000 C.3   104  GLY104      0.2014
     31  C          0.1750   11.6100   -2.5830 C.2   104  GLY104      0.2639
     32  O          1.1070   10.8630   -2.8910 O.2   104  GLY104     -0.2714
     33  N         -1.0990   11.2240   -2.5680 N.am  105  GLY105     -0.1939
     34  CA        -1.4780    9.8640   -2.9070 C.3   105  GLY105      0.2014
     35  C         -1.2340    9.5090   -4.3610 C.2   105  GLY105      0.2638
     36  O         -1.4810    8.3760   -4.7680 O.2   105  GLY105     -0.2714
     37  N         -0.7600   10.4740   -5.1480 N.am  106  LEU106     -0.1977
     38  CA        -0.4790   10.2450   -6.5630 C.3   106  LEU106      0.1596
     39  C          0.9120    9.6600   -6.7140 C.2   106  LEU106      0.2287
     40  O          1.3700    9.3640   -7.8240 O.2   106  LEU106     -0.2864
     41  CB        -0.6090   11.5460   -7.3570 C.3   106  LEU106      0.0297
     42  CG        -2.0470   12.0580   -7.4900 C.3   106  LEU106      0.0022
     43  CD1       -2.0540   13.3950   -8.2110 C.3   106  LEU106      0.0001
     44  CD2       -2.8870   11.0410   -8.2510 C.3   106  LEU106      0.0001
     45  N          4.7630   12.2340   -0.2820 N.3   207  SER207     -0.1202
     46  CA         4.1110   12.5720    0.9770 C.3   207  SER207      0.2020
     47  C          3.5510   13.9760    0.8090 C.2   207  SER207      0.2619
     48  O          4.2680   14.8900    0.3980 O.2   207  SER207     -0.2717
     49  CB         5.1050   12.5950    2.1490 C.3   207  SER207      0.2103
     50  OG         5.6710   11.3310    2.4150 O.3   207  SER207     -0.2182
     51  N          2.2670   14.1330    1.1020 N.am  208  GLY208     -0.1942
     52  CA         1.6440   15.4390    1.0280 C.3   208  GLY208      0.2014
     53  C          1.7320   15.9960    2.4340 C.2   208  GLY208      0.2638
     54  O          2.8340   16.1510    2.9530 O.2   208  GLY208     -0.2714
     55  N          0.5870   16.2720    3.0590 N.am  209  GLU209     -0.1977
     56  CA         0.5580   16.7930    4.4270 C.3   209  GLU209      0.1602
     57  C          1.0360   15.7540    5.4600 C.2   209  GLU209      0.2287
     58  O          1.6530   16.1090    6.4620 O.2   209  GLU209     -0.2864
     59  CB        -0.8510   17.2800    4.7720 C.3   209  GLU209      0.0415
     60  CG        -1.1460   18.6560    4.1680 C.3   209  GLU209      0.1163
     61  CD        -0.0190   19.6540    4.3820 C.2   209  GLU209      0.3649
     62  OE1        0.2960   19.9490    5.5590 O.co2 209  GLU209     -0.2457
     63  OE2        0.5720   20.1270    3.3840 O.co2 209  GLU209     -0.2457
@<TRIPOS>BOND
     1    21    22    1
     2    22    23    1
     3    23    24    2
     4    44    42    1
     5    43    42    1
     6    40    39    2
     7    42    41    1
     8    41    38    1
     9    39    38    1
    10    38    37    1
    11    25    26    1
    12    19    18    1
    13    18    20    1
    14    18    15    1
    15    37    35   am
    16    26    27    1
    17    28    27    2
    18    36    35    2
    19    17    16    2
    20    16    15    1
    21    35    34    1
    22    27    29   am
    23    15    14    1
    24    14     9   am
    25    29    30    1
    26    34    33    1
    27    32    31    2
    28    31    33   am
    29    31    30    1
    30     9    10    2
    31     9     8    1
    32     8     7    1
    33     8    11    1
    34    12    11    1
    35     4     3    2
    36     7     3   am
    37    45    46    1
    38     3     2    1
    39    11    13    1
    40     5     2    1
    41     5     6    1
    42    48    47    2
    43     2     1    1
    44    47    46    1
    45    47    51   am
    46    46    49    1
    47    52    51    1
    48    52    53    1
    49    49    50    1
    50    53    54    2
    51    53    55   am
    52    55    56    1
    53    63    61   ar
    54    60    61    1
    55    60    59    1
    56    61    62   ar
    57    56    59    1
    58    56    57    1
    59    57    58    2
