@<TRIPOS>MOLECULE
tmp/2gmrA06.pdb
 132 133 0 0 0
SMALL
GASTEIGER

@<TRIPOS>ATOM
      1  N         40.0610  -27.0290   16.7150 N.3    22  PHE22      -0.1241
      2  CA        40.1110  -25.6830   16.1710 C.3    22  PHE22       0.1605
      3  C         40.2840  -24.6340   17.2600 C.2    22  PHE22       0.2264
      4  O         39.9820  -23.4610   17.0500 O.2    22  PHE22      -0.2867
      5  CB        38.8330  -25.3990   15.3850 C.3    22  PHE22       0.0534
      6  CG        38.5960  -26.3530   14.2460 C.ar   22  PHE22      -0.0203
      7  CD1       37.5130  -27.2300   14.2680 C.ar   22  PHE22      -0.0042
      8  CD2       39.4380  -26.3580   13.1370 C.ar   22  PHE22      -0.0042
      9  CE1       37.2690  -28.0980   13.1960 C.ar   22  PHE22      -0.0003
     10  CE2       39.2030  -27.2200   12.0620 C.ar   22  PHE22      -0.0003
     11  CZ        38.1150  -28.0910   12.0930 C.ar   22  PHE22      -0.0000
     12  N         42.3000  -22.3400   18.5850 N.3    24  PHE24      -0.1227
     13  CA        43.4850  -21.4980   18.4220 C.3    24  PHE24       0.1736
     14  C         43.1170  -20.0990   17.9210 C.2    24  PHE24       0.2595
     15  O         41.9550  -19.8170   17.6310 O.2    24  PHE24      -0.2718
     16  CB        44.4880  -22.1680   17.4650 C.3    24  PHE24       0.0547
     17  CG        43.8800  -22.6220   16.1640 C.ar   24  PHE24      -0.0202
     18  CD1       43.6960  -21.7290   15.1130 C.ar   24  PHE24      -0.0042
     19  CD2       43.4550  -23.9360   16.0040 C.ar   24  PHE24      -0.0042
     20  CE1       43.0960  -22.1400   13.9220 C.ar   24  PHE24      -0.0003
     21  CE2       42.8560  -24.3540   14.8190 C.ar   24  PHE24      -0.0003
     22  CZ        42.6760  -23.4540   13.7770 C.ar   24  PHE24      -0.0000
     23  N         44.1170  -19.2300   17.8220 N.am   25  TRP25      -0.1962
     24  CA        43.9140  -17.8530   17.3760 C.3    25  TRP25       0.1771
     25  C         44.6890  -17.5180   16.1020 C.2    25  TRP25       0.2619
     26  O         45.7730  -18.0500   15.8620 O.2    25  TRP25      -0.2715
     27  CB        44.3690  -16.8830   18.4720 C.3    25  TRP25       0.0590
     28  CG        43.4480  -16.7460   19.6560 C.ar   25  TRP25       0.0006
     29  CD1       42.4550  -15.8220   19.8180 C.ar   25  TRP25       0.0946
     30  CD2       43.4700  -17.5240   20.8580 C.ar   25  TRP25       0.0152
     31  NE1       41.8630  -15.9730   21.0480 N.ar   25  TRP25      -0.2442
     32  CE2       42.4650  -17.0110   21.7060 C.ar   25  TRP25       0.0810
     33  CE3       44.2400  -18.6050   21.3010 C.ar   25  TRP25       0.0012
     34  CZ2       42.2110  -17.5420   22.9720 C.ar   25  TRP25       0.0191
     35  CZ3       43.9860  -19.1330   22.5620 C.ar   25  TRP25       0.0001
     36  CH2       42.9790  -18.5980   23.3800 C.ar   25  TRP25       0.0015
     37  N         44.1230  -16.6320   15.2890 N.am   26  VAL26      -0.1977
     38  CA        44.7740  -16.1690   14.0700 C.3    26  VAL26       0.1596
     39  C         44.8630  -14.6580   14.2670 C.2    26  VAL26       0.2287
     40  O         43.9110  -13.9220   14.0060 O.2    26  VAL26      -0.2864
     41  CB        43.9450  -16.4900   12.7980 C.3    26  VAL26       0.0276
     42  CG1       44.6400  -15.9200   11.5680 C.3    26  VAL26       0.0022
     43  CG2       43.7820  -17.9980   12.6370 C.3    26  VAL26       0.0022
     44  N         41.7990  -12.4630   16.1030 N.3    29  PHE29      -0.1227
     45  CA        40.6220  -13.3190   15.9880 C.3    29  PHE29       0.1736
     46  C         40.7700  -14.7220   16.5620 C.2    29  PHE29       0.2595
     47  O         41.7740  -15.3940   16.3340 O.2    29  PHE29      -0.2718
     48  CB        40.2020  -13.4650   14.5230 C.3    29  PHE29       0.0547
     49  CG        39.9080  -12.1630   13.8320 C.ar   29  PHE29      -0.0202
     50  CD1       40.8910  -11.5170   13.0940 C.ar   29  PHE29      -0.0042
     51  CD2       38.6450  -11.5840   13.9220 C.ar   29  PHE29      -0.0042
     52  CE1       40.6240  -10.3110   12.4530 C.ar   29  PHE29      -0.0003
     53  CE2       38.3680  -10.3790   13.2860 C.ar   29  PHE29      -0.0003
     54  CZ        39.3620   -9.7400   12.5490 C.ar   29  PHE29      -0.0000
     55  N         39.7600  -15.1580   17.3090 N.am   30  TYR30      -0.1962
     56  CA        39.7530  -16.5010   17.8620 C.3    30  TYR30       0.1771
     57  C         38.9920  -17.3010   16.8180 C.2    30  TYR30       0.2619
     58  O         38.0470  -16.7870   16.2250 O.2    30  TYR30      -0.2715
     59  CB        38.9990  -16.5510   19.1870 C.3    30  TYR30       0.0574
     60  CG        38.7070  -17.9670   19.6270 C.ar   30  TYR30      -0.0198
     61  CD1       39.7070  -18.7620   20.1930 C.ar   30  TYR30      -0.0009
     62  CD2       37.4500  -18.5360   19.4140 C.ar   30  TYR30      -0.0009
     63  CE1       39.4590  -20.0920   20.5320 C.ar   30  TYR30       0.0417
     64  CE2       37.1950  -19.8530   19.7450 C.ar   30  TYR30       0.0417
     65  CZ        38.2020  -20.6250   20.3020 C.ar   30  TYR30       0.1957
     66  OH        37.9500  -21.9310   20.6280 O.3    30  TYR30      -0.2866
     67  N         39.3700  -18.5550   16.6030 N.am   31  VAL31      -0.1977
     68  CA        38.7000  -19.3480   15.5850 C.3    31  VAL31       0.1596
     69  C         37.6240  -20.3080   16.0640 C.2    31  VAL31       0.2287
     70  O         36.4330  -20.0230   15.9290 O.2    31  VAL31      -0.2864
     71  CB        39.7240  -20.1380   14.7370 C.3    31  VAL31       0.0276
     72  CG1       39.0060  -20.8590   13.5940 C.3    31  VAL31       0.0022
     73  CG2       40.7890  -19.1830   14.1830 C.3    31  VAL31       0.0022
     74  N         34.1600  -20.7090   14.0090 N.3    35  GLY35      -0.1210
     75  CA        34.8720  -19.6460   13.3250 C.3    35  GLY35       0.1956
     76  C         35.0860  -20.1690   11.9110 C.2    35  GLY35       0.2611
     77  O         34.9990  -19.4300   10.9250 O.2    35  GLY35      -0.2717
     78  N         35.3540  -21.4720   11.8220 N.am   36  VAL36      -0.1979
     79  CA        35.5590  -22.1310   10.5450 C.3    36  VAL36       0.1595
     80  C         34.2360  -22.1270    9.8010 C.2    36  VAL36       0.2287
     81  O         34.1660  -21.7410    8.6340 O.2    36  VAL36      -0.2864
     82  CB        36.0330  -23.5870   10.7330 C.3    36  VAL36       0.0276
     83  CG1       36.0930  -24.2980    9.3810 C.3    36  VAL36       0.0022
     84  CG2       37.4030  -23.6000   11.3960 C.3    36  VAL36       0.0022
     85  N         31.7580  -20.1430   10.1230 N.3    38  THR38      -0.1203
     86  CA        31.4240  -18.7790    9.7110 C.3    38  THR38       0.1994
     87  C         32.0960  -18.4580    8.3910 C.2    38  THR38       0.2617
     88  O         31.4600  -17.9760    7.4540 O.2    38  THR38      -0.2717
     89  CB        31.8780  -17.7310   10.7520 C.3    38  THR38       0.1784
     90  OG1       31.0830  -17.8540   11.9360 O.3    38  THR38      -0.2211
     91  CG2       31.7210  -16.3280   10.2000 C.3    38  THR38       0.0376
     92  N         33.3920  -18.7290    8.3240 N.am   39  PHE39      -0.1975
     93  CA        34.1590  -18.4870    7.1100 C.3    39  PHE39       0.1639
     94  C         33.4960  -19.2100    5.9290 C.2    39  PHE39       0.2290
     95  O         33.2220  -18.6050    4.8870 O.2    39  PHE39      -0.2864
     96  CB        35.5860  -19.0000    7.2900 C.3    39  PHE39       0.0560
     97  CG        36.5150  -18.5950    6.1920 C.ar   39  PHE39      -0.0200
     98  CD1       37.1960  -17.3890    6.2550 C.ar   39  PHE39      -0.0042
     99  CD2       36.7010  -19.4150    5.0850 C.ar   39  PHE39      -0.0042
    100  CE1       38.0540  -17.0010    5.2300 C.ar   39  PHE39      -0.0003
    101  CE2       37.5530  -19.0390    4.0560 C.ar   39  PHE39      -0.0003
    102  CZ        38.2310  -17.8290    4.1290 C.ar   39  PHE39      -0.0000
    103  N         30.1640  -17.6450    5.0210 N.3    42  ALA42      -0.1245
    104  CA        30.4250  -16.2950    4.5480 C.3    42  ALA42       0.1562
    105  C         30.9750  -16.3400    3.1220 C.2    42  ALA42       0.2260
    106  O         30.4260  -15.7060    2.2210 O.2    42  ALA42      -0.2867
    107  CB        31.4120  -15.5930    5.4840 C.3    42  ALA42       0.0290
    108  N         28.2870  -17.3420   13.9250 N.3   100  TRP100     -0.1241
    109  CA        28.9310  -16.1940   14.5360 C.3   100  TRP100      0.1605
    110  C         28.5110  -16.1320   16.0050 C.2   100  TRP100      0.2264
    111  O         29.3420  -15.9370   16.8930 O.2   100  TRP100     -0.2867
    112  CB        28.5240  -14.9210   13.7890 C.3   100  TRP100      0.0550
    113  CG        29.2690  -13.7310   14.2540 C.ar  100  TRP100      0.0003
    114  CD1       28.8900  -12.8600   15.2310 C.ar  100  TRP100      0.0946
    115  CD2       30.5750  -13.3220   13.8310 C.ar  100  TRP100      0.0152
    116  NE1       29.8810  -11.9350   15.4490 N.ar  100  TRP100     -0.2442
    117  CE2       30.9280  -12.1930   14.6050 C.ar  100  TRP100      0.0810
    118  CE3       31.4850  -13.8040   12.8770 C.ar  100  TRP100      0.0012
    119  CZ2       32.1550  -11.5330   14.4580 C.ar  100  TRP100      0.0191
    120  CZ3       32.7070  -13.1490   12.7280 C.ar  100  TRP100      0.0001
    121  CH2       33.0300  -12.0230   13.5180 C.ar  100  TRP100      0.0015
    122  N         29.9000  -18.8520   17.9600 N.3   103  ARG103     -0.1245
    123  CA        31.3180  -18.5640   18.1310 C.3   103  ARG103      0.1563
    124  C         31.5050  -17.6430   19.3490 C.2   103  ARG103      0.2260
    125  O         32.5160  -17.7360   20.0480 O.2   103  ARG103     -0.2867
    126  CB        31.9000  -17.9200   16.8620 C.3   103  ARG103      0.0307
    127  CG        33.3310  -17.4150   17.0230 C.3   103  ARG103      0.0489
    128  CD        33.9770  -17.0900   15.6770 C.3   103  ARG103      0.2205
    129  NE        35.2670  -16.4180   15.8330 N.pl3 103  ARG103     -0.0865
    130  CZ        35.4230  -15.0970   15.7450 C.cat 103  ARG103      0.5346
    131  NH1       34.3700  -14.3260   15.4990 N.pl3 103  ARG103      0.1354
    132  NH2       36.6190  -14.5390   15.9080 N.pl3 103  ARG103      0.1354
@<TRIPOS>BOND
     1   106   105    2
     2   105   104    1
     3   101   102   ar
     4   101    99   ar
     5   102   100   ar
     6   104   103    1
     7   104   107    1
     8    95    94    2
     9    99    97   ar
    10   100    98   ar
    11    94    93    1
    12    97    98   ar
    13    97    96    1
    14    93    96    1
    15    93    92    1
    16    88    87    2
    17    92    87   am
    18    87    86    1
    19    81    80    2
    20    83    82    1
    21    86    85    1
    22    86    89    1
    23    80    79    1
    24    91    89    1
    25    79    82    1
    26    79    78    1
    27    82    84    1
    28    89    90    1
    29    77    76    2
    30    42    41    1
    31    78    76   am
    32    76    75    1
    33    10    11   ar
    34    10     8   ar
    35    11     9   ar
    36    52    54   ar
    37    52    50   ar
    38    54    53   ar
    39    43    41    1
    40   120   118   ar
    41   120   121   ar
    42    41    38    1
    43   118   115   ar
    44    50    49   ar
    45     8     6   ar
    46     9     7   ar
    47    53    51   ar
    48    75    74    1
    49   121   119   ar
    50    72    71    1
    51    22    20   ar
    52    22    21   ar
    53   112   113    1
    54   112   109    1
    55   115   113   ar
    56   115   117   ar
    57    49    51   ar
    58    49    48    1
    59    20    18   ar
    60   108   109    1
    61    40    39    2
    62    38    39    1
    63    38    37    1
    64    73    71    1
    65     6     7   ar
    66     6     5    1
    67   113   114   ar
    68   119   117   ar
    69    48    45    1
    70   109   110    1
    71   117   116   ar
    72    71    68    1
    73    21    19   ar
    74    18    17   ar
    75   114   116   ar
    76    37    25   am
    77     5     2    1
    78   131   130    1
    79    68    69    1
    80    68    67    1
    81   128   129    1
    82   128   127    1
    83   130   129    2
    84   130   132    1
    85    26    25    2
    86    70    69    2
    87    45    44    1
    88    45    46    1
    89    19    17   ar
    90   110   111    2
    91    25    24    1
    92    17    16    1
    93     2     1    1
    94     2     3    1
    95    58    57    2
    96    47    46    2
    97    46    55   am
    98    67    57   am
    99    57    56    1
   100   126   127    1
   101   126   123    1
   102     4     3    2
   103    55    56    1
   104    24    23    1
   105    24    27    1
   106    16    13    1
   107    15    14    2
   108    23    14   am
   109    56    59    1
   110    14    13    1
   111   122   123    1
   112   123   124    1
   113    13    12    1
   114    27    28    1
   115    59    60    1
   116   124   125    2
   117    62    60   ar
   118    62    64   ar
   119    60    61   ar
   120    28    29   ar
   121    28    30   ar
   122    64    65   ar
   123    29    31   ar
   124    61    63   ar
   125    65    63   ar
   126    65    66    1
   127    30    33   ar
   128    30    32   ar
   129    31    32   ar
   130    33    35   ar
   131    32    34   ar
   132    35    36   ar
   133    34    36   ar
