@<TRIPOS>MOLECULE
tmp/2gmsA00.pdb
 157 148 0 0 0
SMALL
GASTEIGER

@<TRIPOS>ATOM
      1  N          2.8140    3.0730   13.8930 N.3    57  SER57      -0.1202
      2  CA         2.0400    2.6420   12.7390 C.3    57  SER57       0.2020
      3  C          1.6830    1.1650   12.8690 C.2    57  SER57       0.2619
      4  O          2.2200    0.4140   13.6950 O.2    57  SER57      -0.2717
      5  CB         2.7650    2.8520   11.3830 C.3    57  SER57       0.2103
      6  OG         4.0210    2.1700   11.3250 O.3    57  SER57      -0.2182
      7  N          0.7790    0.7380   12.0120 N.am   58  GLY58      -0.1942
      8  CA         0.4320   -0.6620   11.9930 C.3    58  GLY58       0.2014
      9  C          1.6720   -1.3870   11.4740 C.2    58  GLY58       0.2639
     10  O          1.9300   -2.5230   11.8390 O.2    58  GLY58      -0.2714
     11  N          2.4780   -0.7230   10.6320 N.am   59  SER59      -0.1949
     12  CA         3.6940   -1.3520   10.0990 C.3    59  SER59       0.1924
     13  C          4.7230   -1.6380   11.1770 C.2    59  SER59       0.2314
     14  O          5.3970   -2.6640   11.1810 O.2    59  SER59      -0.2863
     15  CB         4.3470   -0.4990    9.0120 C.3    59  SER59       0.2116
     16  OG         3.5230   -0.5200    7.8800 O.3    59  SER59      -0.2180
     17  N          3.6220   -4.5990   13.4270 N.3    62  ASN62      -0.1240
     18  CA         4.0200   -5.8670   12.8090 C.3    62  ASN62       0.1653
     19  C          5.4880   -6.1960   13.0870 C.2    62  ASN62       0.2266
     20  O          5.8620   -7.3320   13.3930 O.2    62  ASN62      -0.2867
     21  CB         3.8010   -5.8390   11.2710 C.3    62  ASN62       0.1155
     22  CG         2.3950   -6.1430   10.8020 C.2    62  ASN62       0.2627
     23  OD1        1.5430   -6.5230   11.6170 O.2    62  ASN62      -0.2716
     24  ND2        2.1320   -6.0410    9.4920 N.am   62  ASN62      -0.0877
     25  N         -1.6610   -9.6210    0.9270 N.3    89  SER89      -0.1202
     26  CA        -1.6080   -8.7940    2.1240 C.3    89  SER89       0.2020
     27  C         -0.8760   -7.4770    1.8320 C.2    89  SER89       0.2618
     28  O         -0.4780   -7.2210    0.7040 O.2    89  SER89      -0.2717
     29  CB        -0.9520   -9.5180    3.2930 C.3    89  SER89       0.2103
     30  OG        -1.1060   -8.6440    4.3870 O.3    89  SER89      -0.2182
     31  N         -0.6380   -6.6680    2.8390 N.am   90  TRP90      -0.1975
     32  CA         0.0930   -5.4290    2.6470 C.3    90  TRP90       0.1640
     33  C          1.5980   -5.7360    2.6730 C.2    90  TRP90       0.2290
     34  O          2.0330   -6.7130    3.2630 O.2    90  TRP90      -0.2864
     35  CB        -0.3200   -4.3770    3.6990 C.3    90  TRP90       0.0576
     36  CG         0.3800   -3.0740    3.4830 C.ar   90  TRP90       0.0006
     37  CD1        1.3370   -2.5200    4.2660 C.ar   90  TRP90       0.0946
     38  CD2        0.2070   -2.2080    2.3710 C.ar   90  TRP90       0.0152
     39  NE1        1.7730   -1.3520    3.7020 N.ar   90  TRP90      -0.2442
     40  CE2        1.1010   -1.1320    2.5350 C.ar   90  TRP90       0.0810
     41  CE3       -0.6130   -2.2570    1.2390 C.ar   90  TRP90       0.0012
     42  CZ2        1.1970   -0.0950    1.6030 C.ar   90  TRP90       0.0191
     43  CZ3       -0.5240   -1.2280    0.3200 C.ar   90  TRP90       0.0001
     44  CH2        0.3590   -0.1540    0.5010 C.ar   90  TRP90       0.0015
     45  N          4.0640   -4.6120    4.3820 N.3    92  THR92      -0.1203
     46  CA         4.6420   -4.6300    5.7110 C.3    92  THR92       0.1994
     47  C          4.2250   -5.7910    6.5710 C.2    92  THR92       0.2618
     48  O          4.6000   -5.9090    7.7380 O.2    92  THR92      -0.2717
     49  CB         4.6040   -3.3080    6.4780 C.3    92  THR92       0.1784
     50  OG1        3.2610   -2.8480    6.5940 O.3    92  THR92      -0.2211
     51  CG2        5.5360   -2.3060    5.8080 C.3    92  THR92       0.0376
     52  N          3.4540   -6.6740    5.9950 N.am   93  THR93      -0.1952
     53  CA         3.1130   -7.8500    6.7400 C.3    93  THR93       0.1897
     54  C          4.3330   -8.7810    6.5620 C.2    93  THR93       0.2313
     55  O          4.7250   -9.5440    7.4370 O.2    93  THR93      -0.2863
     56  CB         1.8770   -8.5050    6.0880 C.3    93  THR93       0.1794
     57  OG1        0.7490   -7.6790    6.2010 O.3    93  THR93      -0.2208
     58  CG2        1.6010   -9.8930    6.6370 C.3    93  THR93       0.0378
     59  N         -3.8650  -13.1170    8.2380 N.3   135  VAL135     -0.1245
     60  CA        -4.2360  -11.7610    7.9220 C.3   135  VAL135      0.1561
     61  C         -5.7490  -11.7470    7.7540 C.2   135  VAL135      0.2260
     62  O         -6.2810  -12.5640    7.0200 O.2   135  VAL135     -0.2867
     63  CB        -3.4950  -11.2820    6.6500 C.3   135  VAL135      0.0252
     64  CG1       -3.9850   -9.9270    6.1560 C.3   135  VAL135      0.0019
     65  CG2       -1.9760  -11.2560    6.8290 C.3   135  VAL135      0.0019
     66  N         -2.3750  -10.3150   11.6960 N.3   161  ASP161     -0.1239
     67  CA        -2.2160   -8.9660   11.2120 C.3   161  ASP161      0.1674
     68  C         -3.6880   -8.5520   11.0470 C.2   161  ASP161      0.2266
     69  O         -4.3740   -9.0210   10.1290 O.2   161  ASP161     -0.2867
     70  CB        -1.4530   -8.8570    9.8770 C.3   161  ASP161      0.1410
     71  CG        -1.4530   -7.4620    9.3100 C.2   161  ASP161      0.3668
     72  OD1       -2.3270   -6.6330    9.5730 O.co2 161  ASP161     -0.2456
     73  OD2       -0.4290   -7.2200    8.4990 O.co2 161  ASP161     -0.2456
     74  N         -4.7470   -5.3450   10.7810 N.3   163  CYS163     -0.1221
     75  CA        -4.7070   -3.9730   10.3030 C.3   163  CYS163      0.1808
     76  C         -5.8940   -3.5220    9.4600 C.2   163  CYS163      0.2601
     77  O         -6.0980   -2.3300    9.3090 O.2   163  CYS163     -0.2717
     78  CB        -3.3600   -3.5840    9.6670 C.3   163  CYS163      0.0970
     79  SG        -2.0760   -3.5640   10.9410 S.3   163  CYS163     -0.0800
     80  N         -6.6880   -4.4460    8.9080 N.am  164  GLU164     -0.1979
     81  CA        -7.8620   -4.1040    8.0940 C.3   164  GLU164      0.1602
     82  C         -9.1810   -4.5530    8.7010 C.2   164  GLU164      0.2287
     83  O        -10.2520   -4.2520    8.1610 O.2   164  GLU164     -0.2864
     84  CB        -7.8040   -4.7620    6.7000 C.3   164  GLU164      0.0415
     85  CG        -6.6130   -4.2360    5.8590 C.3   164  GLU164      0.1163
     86  CD        -6.4220   -4.9910    4.5610 C.2   164  GLU164      0.3649
     87  OE1       -7.1760   -5.8770    4.1860 O.co2 164  GLU164     -0.2457
     88  OE2       -5.3570   -4.6070    3.8940 O.co2 164  GLU164     -0.2457
     89  N         -4.1250   -1.0660   12.8870 N.3   185  SER185     -0.1217
     90  CA        -3.6610    0.1720   12.2940 C.3   185  SER185      0.1889
     91  C         -4.7210    1.2410   12.4710 C.2   185  SER185      0.2288
     92  O         -5.9130    0.9730   12.3170 O.2   185  SER185     -0.2866
     93  CB        -3.3270   -0.0220   10.8160 C.3   185  SER185      0.2089
     94  OG        -3.1920    1.2340   10.1490 O.3   185  SER185     -0.2183
     95  N         -4.1680    4.2550   10.8780 N.3   187  PHE187     -0.1241
     96  CA        -3.7700    5.2090    9.8730 C.3   187  PHE187      0.1605
     97  C         -5.0400    5.7880    9.2340 C.2   187  PHE187      0.2264
     98  O         -6.1330    5.2210    9.3620 O.2   187  PHE187     -0.2867
     99  CB        -2.9590    4.4870    8.7810 C.3   187  PHE187      0.0534
    100  CG        -2.5560    5.4100    7.6540 C.ar  187  PHE187     -0.0203
    101  CD1       -1.6290    6.4250    7.8750 C.ar  187  PHE187     -0.0042
    102  CD2       -3.0840    5.2700    6.3690 C.ar  187  PHE187     -0.0042
    103  CE1       -1.2380    7.2770    6.8420 C.ar  187  PHE187     -0.0003
    104  CE2       -2.7030    6.1120    5.3210 C.ar  187  PHE187     -0.0003
    105  CZ        -1.7840    7.1320    5.5640 C.ar  187  PHE187     -0.0000
    106  N         -8.8010    4.1500    8.2170 N.3   190  HIS190     -0.1241
    107  CA        -8.9860    2.8130    8.7050 C.3   190  HIS190      0.1621
    108  C        -10.2670    2.8550    9.5070 C.2   190  HIS190      0.2264
    109  O        -10.9480    3.8600    9.4150 O.2   190  HIS190     -0.2867
    110  CB        -7.7700    2.4010    9.5430 C.3   190  HIS190      0.0745
    111  CG        -6.7400    1.9500    8.5800 C.ar  190  HIS190      0.0817
    112  ND1       -6.2640    0.6380    8.5580 N.ar  190  HIS190     -0.2268
    113  CD2       -6.1690    2.6450    7.5480 C.ar  190  HIS190      0.1154
    114  CE1       -5.3940    0.5800    7.5500 C.ar  190  HIS190      0.1986
    115  NE2       -5.3120    1.7690    6.9200 N.ar  190  HIS190     -0.2212
    116  N         -1.5240    8.7570   12.0750 N.3   196  GLU196     -0.1231
    117  CA        -0.7470    7.5430   11.8950 C.3   196  GLU196      0.1699
    118  C         -0.8660    6.7960   13.2020 C.2   196  GLU196      0.2592
    119  O         -1.0380    7.4270   14.2390 O.2   196  GLU196     -0.2718
    120  CB         0.7580    7.7020   11.5480 C.3   196  GLU196      0.0402
    121  CG         0.9840    8.3000   10.1500 C.3   196  GLU196      0.1161
    122  CD         1.6300    7.3630    9.1740 C.2   196  GLU196      0.3649
    123  OE1        1.6190    6.1350    9.2770 O.co2 196  GLU196     -0.2457
    124  OE2        2.2230    8.0160    8.2000 O.co2 196  GLU196     -0.2457
    125  N         -0.7790    5.4790   13.1710 N.am  197  GLY197     -0.1957
    126  CA        -0.8600    4.7850   14.4220 C.3   197  GLY197      0.1869
    127  C         -1.0600    3.2890   14.2480 C.2   197  GLY197      0.2309
    128  O         -1.5840    2.8020   13.2340 O.2   197  GLY197     -0.2863
    129  N        -14.1190   -3.4600    5.6820 N.3   304  PHE304     -0.1241
    130  CA       -13.2090   -2.3780    5.4600 C.3   304  PHE304      0.1605
    131  C        -13.5450   -1.7290    4.1320 C.2   304  PHE304      0.2264
    132  O        -13.5460   -0.5170    3.9840 O.2   304  PHE304     -0.2867
    133  CB       -11.8100   -2.9900    5.4100 C.3   304  PHE304      0.0534
    134  CG       -10.7330   -1.9670    5.2090 C.ar  304  PHE304     -0.0203
    135  CD1      -10.2760   -1.2200    6.2900 C.ar  304  PHE304     -0.0042
    136  CD2      -10.1650   -1.7430    3.9570 C.ar  304  PHE304     -0.0042
    137  CE1       -9.2610   -0.2800    6.1330 C.ar  304  PHE304     -0.0003
    138  CE2       -9.1660   -0.7860    3.7780 C.ar  304  PHE304     -0.0003
    139  CZ        -8.7050   -0.0660    4.8760 C.ar  304  PHE304     -0.0000
    140  N         -9.5510    0.6640   -6.4170 N.3   333  ARG333     -0.1245
    141  CA        -8.1160    0.2640   -6.0270 C.3   333  ARG333      0.1563
    142  C         -8.0260   -1.2740   -6.4020 C.2   333  ARG333      0.2260
    143  O         -9.0510   -1.9820   -6.5950 O.2   333  ARG333     -0.2867
    144  CB        -7.8230    0.6790   -4.4720 C.3   333  ARG333      0.0307
    145  CG        -7.0810   -0.3680   -3.6370 C.3   333  ARG333      0.0489
    146  CD        -6.9870   -0.0220   -2.1440 C.3   333  ARG333      0.2205
    147  NE        -5.7620   -0.5510   -1.5500 N.pl3 333  ARG333     -0.0865
    148  CZ        -5.2460   -0.1570   -0.3890 C.cat 333  ARG333      0.5346
    149  NH1       -5.6280    1.0000    0.1780 N.pl3 333  ARG333      0.1354
    150  NH2       -4.3410   -0.8800    0.2700 N.pl3 333  ARG333      0.1354
    151  N         -5.9100   -4.6960   -2.1650 N.3   336  VAL336     -0.1245
    152  CA        -4.6950   -4.5640   -1.3970 C.3   336  VAL336      0.1561
    153  C         -3.5560   -4.4360   -2.4100 C.2   336  VAL336      0.2260
    154  O         -3.5580   -3.5560   -3.2630 O.2   336  VAL336     -0.2867
    155  CB        -4.5600   -5.6690   -0.3100 C.3   336  VAL336      0.0252
    156  CG1       -3.4790   -5.3810    0.7250 C.3   336  VAL336      0.0019
    157  CG2       -5.8580   -5.8800    0.4460 C.3   336  VAL336      0.0019
@<TRIPOS>BOND
     1   143   142    2
     2   140   141    1
     3   142   141    1
     4   141   144    1
     5   144   145    1
     6   145   146    1
     7   154   153    2
     8   153   152    1
     9   151   152    1
    10   146   147    1
    11   147   148    2
    12   152   155    1
    13   148   149    1
    14   148   150    1
    15   155   157    1
    16   155   156    1
    17    43    44   ar
    18    43    41   ar
    19    44    42   ar
    20    28    27    2
    21    25    26    1
    22    41    38   ar
    23    42    40   ar
    24    27    26    1
    25    27    31   am
    26    26    29    1
    27    38    40   ar
    28    38    36   ar
    29    40    39   ar
    30    32    33    1
    31    32    31    1
    32    32    35    1
    33    33    34    2
    34    29    30    1
    35    36    35    1
    36    36    37   ar
    37    39    37   ar
    38   138   136   ar
    39   138   139   ar
    40    88    86   ar
    41   136   134   ar
    42   132   131    2
    43   131   130    1
    44    87    86   ar
    45    45    46    1
    46    86    85    1
    47   139   137   ar
    48   134   133    1
    49   134   135   ar
    50   104   105   ar
    51   104   102   ar
    52   133   130    1
    53   130   129    1
    54   105   103   ar
    55    46    49    1
    56    46    47    1
    57    51    49    1
    58    85    84    1
    59    52    47   am
    60    52    53    1
    61    56    57    1
    62    56    58    1
    63    56    53    1
    64   137   135   ar
    65    64    63    1
    66   102   100   ar
    67    49    50    1
    68    54    53    1
    69    54    55    2
    70    47    48    2
    71    63    65    1
    72    63    60    1
    73    84    81    1
    74   103   101   ar
    75   115   113   ar
    76   115   114   ar
    77    62    61    2
    78   113   111   ar
    79   114   112   ar
    80   100   101   ar
    81   100    99    1
    82    61    60    1
    83    16    15    1
    84    60    59    1
    85    81    82    1
    86    81    80    1
    87    83    82    2
    88   124   122   ar
    89   106   107    1
    90    73    71   ar
    91   112   111   ar
    92   111   110    1
    93   107   108    1
    94   107   110    1
    95    99    96    1
    96    80    76   am
    97    15    12    1
    98   122   123   ar
    99   122   121    1
   100    97    98    2
   101    97    96    1
   102    77    76    2
   103    71    72   ar
   104    71    70    1
   105   109   108    2
   106    76    75    1
   107    24    22   am
   108    78    75    1
   109    78    79    1
   110    96    95    1
   111    70    67    1
   112    12    11    1
   113    12    13    1
   114    69    68    2
   115    94    93    1
   116   121   120    1
   117    75    74    1
   118    11     9   am
   119    22    21    1
   120    22    23    2
   121    93    90    1
   122    68    67    1
   123    13    14    2
   124    67    66    1
   125    21    18    1
   126     6     5    1
   127     5     2    1
   128     9    10    2
   129     9     8    1
   130   120   117    1
   131   117   116    1
   132   117   118    1
   133     8     7    1
   134     7     3   am
   135    90    91    1
   136    90    89    1
   137    92    91    2
   138     2     3    1
   139     2     1    1
   140    18    19    1
   141    18    17    1
   142     3     4    2
   143    19    20    2
   144   125   118   am
   145   125   126    1
   146   118   119    2
   147   128   127    2
   148   127   126    1
