@<TRIPOS>MOLECULE
tmp/2gmtC00.pdb
 79 78 0 0 0
SMALL
GASTEIGER

@<TRIPOS>ATOM
      1  N         40.2140   82.6500   92.2530 N.3    40  SER40      -0.1202
      2  CA        39.6030   82.4480   90.9390 C.3    40  SER40       0.2020
      3  C         38.3440   81.6650   91.2070 C.2    40  SER40       0.2619
      4  O         38.2860   80.9710   92.1590 O.2    40  SER40      -0.2717
      5  CB        40.5500   81.7030   90.0170 C.3    40  SER40       0.2103
      6  OG        41.5980   82.6340   89.6120 O.3    40  SER40      -0.2182
      7  N         37.2520   81.8270   90.4880 N.am   41  CYS41      -0.1955
      8  CA        36.0420   81.1110   90.8190 C.3    41  CYS41       0.1843
      9  C         35.3780   80.6090   89.5320 C.2    41  CYS41       0.2625
     10  O         35.9140   80.7940   88.4300 O.2    41  CYS41      -0.2714
     11  CB        35.1520   82.1040   91.5210 C.3    41  CYS41       0.0997
     12  SG        33.8030   81.4350   92.5330 S.3    41  CYS41      -0.0797
     13  N         34.2550   79.9020   89.6220 N.am   42  MET42      -0.1963
     14  CA        33.5810   79.3710   88.4340 C.3    42  MET42       0.1736
     15  C         33.3830   80.4610   87.3720 C.2    42  MET42       0.2617
     16  O         32.9410   81.5900   87.6270 O.2    42  MET42      -0.2715
     17  CB        32.2610   78.6320   88.7860 C.3    42  MET42       0.0427
     18  CG        32.4670   77.6820   89.9640 C.3    42  MET42       0.0599
     19  SD        31.3450   76.3090   89.7030 S.3    42  MET42      -0.1393
     20  CE        31.2740   75.4390   91.3350 C.3    42  MET42       0.0692
     21  N         33.7270   80.1070   86.1290 N.am   43  GLY43      -0.1955
     22  CA        33.5610   81.0850   85.0590 C.3    43  GLY43       0.1869
     23  C         34.9080   81.6680   84.6510 C.2    43  GLY43       0.2309
     24  O         35.0660   82.1320   83.5080 O.2    43  GLY43      -0.2863
     25  N         37.5990   79.8450   84.6510 N.3    45  SER45      -0.1217
     26  CA        38.3490   78.7580   83.9860 C.3    45  SER45       0.1889
     27  C         38.6900   78.9910   82.5310 C.2    45  SER45       0.2288
     28  O         37.8330   79.3650   81.7070 O.2    45  SER45      -0.2866
     29  CB        37.5600   77.4370   84.1060 C.3    45  SER45       0.2089
     30  OG        37.1300   77.2000   85.4830 O.3    45  SER45      -0.2183
     31  N         43.7870   79.3370   84.2870 N.3    63  VAL63      -0.1231
     32  CA        42.8580   79.0390   85.3690 C.3    63  VAL63       0.1692
     33  C         42.2920   77.6330   85.2240 C.2    63  VAL63       0.2593
     34  O         41.6000   77.2610   84.2310 O.2    63  VAL63      -0.2718
     35  CB        41.6920   80.0880   85.2450 C.3    63  VAL63       0.0266
     36  CG1       40.5640   79.7590   86.2390 C.3    63  VAL63       0.0020
     37  CG2       42.2970   81.4880   85.6130 C.3    63  VAL63       0.0020
     38  N         42.5350   76.8060   86.2270 N.am   64  SER64      -0.1938
     39  CA        42.1090   75.3890   86.1290 C.3    64  SER64       0.2055
     40  C         41.0600   74.9250   87.0870 C.2    64  SER64       0.2643
     41  O         39.9630   74.5760   86.6390 O.2    64  SER64      -0.2714
     42  CB        43.3170   74.4230   85.9570 C.3    64  SER64       0.2130
     43  OG        42.9900   73.0320   86.1000 O.3    64  SER64      -0.2179
     44  N         41.4190   74.8600   88.3620 N.am   65  TRP65      -0.1959
     45  CA        40.5550   74.4910   89.5010 C.3    65  TRP65       0.1771
     46  C         40.9950   75.2150   90.8360 C.2    65  TRP65       0.2620
     47  O         42.0130   75.9630   90.8680 O.2    65  TRP65      -0.2715
     48  CB        40.3130   72.9630   89.6460 C.3    65  TRP65       0.0590
     49  CG        41.5860   72.1920   89.8580 C.ar   65  TRP65       0.0006
     50  CD1       42.5030   71.8820   88.9030 C.ar   65  TRP65       0.0946
     51  CD2       42.0810   71.6960   91.1020 C.ar   65  TRP65       0.0152
     52  NE1       43.4570   71.1020   89.4210 N.ar   65  TRP65      -0.2442
     53  CE2       43.2340   70.9840   90.7860 C.ar   65  TRP65       0.0810
     54  CE3       41.5830   71.6760   92.4320 C.ar   65  TRP65       0.0012
     55  CZ2       43.9870   70.3710   91.7970 C.ar   65  TRP65       0.0191
     56  CZ3       42.2900   71.0260   93.4260 C.ar   65  TRP65       0.0001
     57  CH2       43.4960   70.4240   93.0950 C.ar   65  TRP65       0.0015
     58  N         40.2000   75.0040   91.9230 N.am   66  GLY66      -0.1940
     59  CA        40.4030   75.5920   93.2520 C.3    66  GLY66       0.2014
     60  C         39.2430   75.2200   94.1560 C.2    66  GLY66       0.2640
     61  O         38.5850   74.2450   93.8380 O.2    66  GLY66      -0.2714
     62  N         39.0230   75.9190   95.2940 N.am   67  SER67      -0.1935
     63  CA        37.9280   75.6910   96.2350 C.3    67  SER67       0.2055
     64  C         36.5670   75.6010   95.6030 C.2    67  SER67       0.2643
     65  O         36.1620   76.5350   94.9260 O.2    67  SER67      -0.2714
     66  CB        37.7330   76.7830   97.2970 C.3    67  SER67       0.2130
     67  OG        36.4750   76.5750   98.0250 O.3    67  SER67      -0.2179
     68  N         35.8130   74.5580   95.9940 N.am   68  SER68      -0.1949
     69  CA        34.4670   74.3700   95.5460 C.3    68  SER68       0.1924
     70  C         33.6880   75.5580   95.9990 C.2    68  SER68       0.2314
     71  O         32.5770   75.8160   95.5220 O.2    68  SER68      -0.2863
     72  CB        33.8610   73.1120   96.1320 C.3    68  SER68       0.2116
     73  OG        33.9200   73.3050   97.5250 O.3    68  SER68      -0.2180
     74  N         35.3740   78.6880   96.2940 N.3    70  CYS70      -0.1235
     75  CA        36.0480   79.8720   95.9080 C.3    70  CYS70       0.1677
     76  C         36.6340   80.5670   97.1280 C.2    70  CYS70       0.2270
     77  O         36.7800   81.7920   97.1400 O.2    70  CYS70      -0.2867
     78  CB        35.1430   80.8220   95.1360 C.3    70  CYS70       0.0956
     79  SG        34.6330   79.9530   93.6630 S.3    70  CYS70      -0.0801
@<TRIPOS>BOND
     1    28    27    2
     2    27    26    1
     3    24    23    2
     4    26    29    1
     5    26    25    1
     6    29    30    1
     7    34    33    2
     8    31    32    1
     9    23    22    1
    10    22    21    1
    11    33    32    1
    12    33    38   am
    13    35    32    1
    14    35    37    1
    15    35    36    1
    16    42    43    1
    17    42    39    1
    18    21    15   am
    19    39    38    1
    20    39    40    1
    21    41    40    2
    22    40    44   am
    23    15    16    2
    24    15    14    1
    25    44    45    1
    26    10     9    2
    27    14    17    1
    28    14    13    1
    29    17    18    1
    30    50    52   ar
    31    50    49   ar
    32    52    53   ar
    33    45    48    1
    34    45    46    1
    35     9    13   am
    36     9     8    1
    37     6     5    1
    38    48    49    1
    39    19    18    1
    40    19    20    1
    41    49    51   ar
    42     5     2    1
    43     7     8    1
    44     7     3   am
    45    53    51   ar
    46    53    55   ar
    47     8    11    1
    48    46    47    2
    49    46    58   am
    50     2     3    1
    51     2     1    1
    52    51    54   ar
    53     3     4    2
    54    11    12    1
    55    55    57   ar
    56    58    59    1
    57    54    56   ar
    58    12    79    1
    59    57    56   ar
    60    59    60    1
    61    79    78    1
    62    61    60    2
    63    60    62   am
    64    65    64    2
    65    78    75    1
    66    62    63    1
    67    71    70    2
    68    69    68    1
    69    69    70    1
    70    69    72    1
    71    64    68   am
    72    64    63    1
    73    75    74    1
    74    75    76    1
    75    72    73    1
    76    63    66    1
    77    76    77    2
    78    66    67    1
