@<TRIPOS>MOLECULE
tmp/2gmvA01.pdb
 158 157 0 0 0
SMALL
GASTEIGER

@<TRIPOS>ATOM
      1  N         18.9390   -2.9600   29.6720 N.3   278  ALA278     -0.1231
      2  CA        18.6160   -3.2270   31.0730 C.3   278  ALA278      0.1694
      3  C         19.4790   -4.3100   31.7090 C.2   278  ALA278      0.2592
      4  O         19.0650   -4.9280   32.6860 O.2   278  ALA278     -0.2718
      5  CB        17.1300   -3.5620   31.2360 C.3   278  ALA278      0.0304
      6  N         20.6840   -4.5070   31.1770 N.am  279  CYS279     -0.1956
      7  CA        21.5840   -5.5550   31.6490 C.3   279  CYS279      0.1843
      8  C         22.8900   -5.0340   32.2410 C.2   279  CYS279      0.2626
      9  O         23.7030   -5.8190   32.7350 O.2   279  CYS279     -0.2714
     10  CB        21.9130   -6.5260   30.5100 C.3   279  CYS279      0.0997
     11  SG        20.4950   -7.5230   30.0120 S.3   279  CYS279     -0.0797
     12  N         23.1070   -3.7250   32.1810 N.am  280  GLY280     -0.1954
     13  CA        24.3360   -3.1590   32.7000 C.3   280  GLY280      0.1869
     14  C         25.4760   -3.4000   31.7310 C.2   280  GLY280      0.2309
     15  O         26.6130   -3.6390   32.1340 O.2   280  GLY280     -0.2863
     16  N         28.1140   -0.7880   32.1490 N.3   283  ASN283     -0.1225
     17  CA        28.7160   -1.0460   33.4510 C.3   283  ASN283      0.1785
     18  C         29.7290   -2.1810   33.4000 C.2   283  ASN283      0.2597
     19  O         30.7340   -2.1600   34.1030 O.2   283  ASN283     -0.2718
     20  CB        27.6360   -1.3960   34.4740 C.3   283  ASN283      0.1169
     21  CG        26.8150   -0.2040   34.8780 C.2   283  ASN283      0.2627
     22  OD1       27.1500    0.9350   34.5480 O.2   283  ASN283     -0.2716
     23  ND2       25.7330   -0.4550   35.6040 N.am  283  ASN283     -0.0877
     24  N         29.4460   -3.1920   32.5880 N.am  284  LEU284     -0.1980
     25  CA        30.3560   -4.3220   32.4670 C.3   284  LEU284      0.1596
     26  C         31.5860   -3.9290   31.6590 C.2   284  LEU284      0.2287
     27  O         32.6910   -4.3680   31.9510 O.2   284  LEU284     -0.2864
     28  CB        29.6500   -5.5090   31.8200 C.3   284  LEU284      0.0297
     29  CG        30.4340   -6.8090   31.6140 C.3   284  LEU284      0.0022
     30  CD1       30.9080   -7.4160   32.9390 C.3   284  LEU284      0.0001
     31  CD2       29.5420   -7.7960   30.8800 C.3   284  LEU284      0.0001
     32  N         34.0190   -2.4790   34.0120 N.3   287  MET287     -0.1230
     33  CA        34.0070   -3.1520   35.3000 C.3   287  MET287      0.1702
     34  C         35.2730   -2.9490   36.1170 C.2   287  MET287      0.2592
     35  O         36.3910   -3.1630   35.6330 O.2   287  MET287     -0.2718
     36  CB        33.7810   -4.6490   35.1170 C.3   287  MET287      0.0401
     37  CG        33.8280   -5.4060   36.4230 C.3   287  MET287      0.0596
     38  SD        33.1980   -7.0750   36.2630 S.3   287  MET287     -0.1393
     39  CE        34.3350   -7.7040   35.0330 C.3   287  MET287      0.0692
     40  N         35.0800   -2.5250   37.3600 N.am  288  ASN288     -0.1974
     41  CA        36.1230   -2.5830   38.3700 C.3   288  ASN288      0.1688
     42  C         35.9860   -3.9270   39.0730 C.2   288  ASN288      0.2292
     43  O         35.1140   -4.0980   39.9220 O.2   288  ASN288     -0.2864
     44  CB        35.9520   -1.4310   39.3580 C.3   288  ASN288      0.1181
     45  CG        37.0430   -1.3860   40.4070 C.2   288  ASN288      0.2629
     46  OD1       36.8110   -0.9600   41.5380 O.2   288  ASN288     -0.2716
     47  ND2       38.2370   -1.8310   40.0400 N.am  288  ASN288     -0.0877
     48  N         29.4150    3.8760   42.4980 N.3   333  LYS333     -0.1231
     49  CA        29.2170    2.4830   42.8840 C.3   333  LYS333      0.1693
     50  C         28.9990    1.5660   41.6860 C.2   333  LYS333      0.2592
     51  O         29.6700    0.5490   41.5530 O.2   333  LYS333     -0.2718
     52  CB        28.0640    2.3440   43.8820 C.3   333  LYS333      0.0285
     53  CG        28.4340    2.7840   45.2760 C.3   333  LYS333      0.0035
     54  CD        27.4450    2.2760   46.3050 C.3   333  LYS333      0.0206
     55  CE        27.9330    2.5830   47.7100 C.3   333  LYS333      0.1093
     56  NZ        26.8170    2.5690   48.6910 N.3   333  LYS333     -0.1314
     57  N         28.0670    1.9150   40.8090 N.am  334  THR334     -0.1953
     58  CA        27.7600    1.0320   39.6930 C.3   334  THR334      0.1897
     59  C         28.7950    1.1360   38.5850 C.2   334  THR334      0.2313
     60  O         28.8640    0.2560   37.7290 O.2   334  THR334     -0.2863
     61  CB        26.3790    1.3340   39.0790 C.3   334  THR334      0.1794
     62  OG1       26.4530    2.5600   38.3410 O.3   334  THR334     -0.2208
     63  CG2       25.3190    1.4610   40.1640 C.3   334  THR334      0.0378
     64  N         18.4390  -10.6620   30.8050 N.3   427  ARG427     -0.1245
     65  CA        17.8620  -10.5640   32.1330 C.3   427  ARG427      0.1563
     66  C         16.7510  -11.6020   32.2850 C.2   427  ARG427      0.2260
     67  O         15.6160  -11.3840   31.8470 O.2   427  ARG427     -0.2867
     68  CB        17.3150   -9.1540   32.3910 C.3   427  ARG427      0.0307
     69  CG        17.1760   -8.8150   33.8710 C.3   427  ARG427      0.0489
     70  CD        16.1660   -7.6980   34.1170 C.3   427  ARG427      0.2205
     71  NE        16.7880   -6.3860   34.2900 N.pl3 427  ARG427     -0.0865
     72  CZ        16.8340   -5.7290   35.4470 C.cat 427  ARG427      0.5346
     73  NH1       16.2930   -6.2480   36.5380 N.pl3 427  ARG427      0.1354
     74  NH2       17.4240   -4.5490   35.5150 N.pl3 427  ARG427      0.1354
     75  N         22.9650  -12.1290   34.9550 N.3   499  TRP499     -0.1227
     76  CA        23.2140  -11.6040   36.3000 C.3   499  TRP499      0.1737
     77  C         21.9540  -11.5790   37.1550 C.2   499  TRP499      0.2595
     78  O         22.0120  -11.2930   38.3480 O.2   499  TRP499     -0.2718
     79  CB        23.7620  -10.1660   36.2490 C.3   499  TRP499      0.0564
     80  CG        24.7950   -9.8790   35.1970 C.ar  499  TRP499      0.0003
     81  CD1       24.8530   -8.7770   34.3820 C.ar  499  TRP499      0.0946
     82  CD2       25.9240  -10.6860   34.8580 C.ar  499  TRP499      0.0152
     83  NE1       25.9450   -8.8580   33.5540 N.ar  499  TRP499     -0.2442
     84  CE2       26.6170  -10.0220   33.8230 C.ar  499  TRP499      0.0810
     85  CE3       26.4130  -11.9130   35.3190 C.ar  499  TRP499      0.0012
     86  CZ2       27.7750  -10.5450   33.2450 C.ar  499  TRP499      0.0191
     87  CZ3       27.5590  -12.4310   34.7480 C.ar  499  TRP499      0.0001
     88  CH2       28.2300  -11.7480   33.7210 C.ar  499  TRP499      0.0015
     89  N         20.8080  -11.8750   36.5540 N.am  500  PHE500     -0.1976
     90  CA        19.5570  -11.3900   37.1220 C.3   500  PHE500      0.1639
     91  C         18.5780  -12.4140   37.6590 C.2   500  PHE500      0.2290
     92  O         17.4240  -12.0840   37.9220 O.2   500  PHE500     -0.2864
     93  CB        18.8830  -10.4870   36.1000 C.3   500  PHE500      0.0560
     94  CG        19.7180   -9.2950   35.7310 C.ar  500  PHE500     -0.0200
     95  CD1       20.6310   -9.3650   34.6940 C.ar  500  PHE500     -0.0042
     96  CD2       19.6270   -8.1220   36.4580 C.ar  500  PHE500     -0.0042
     97  CE1       21.4160   -8.2780   34.3630 C.ar  500  PHE500     -0.0003
     98  CE2       20.4080   -7.0320   36.1320 C.ar  500  PHE500     -0.0003
     99  CZ        21.3050   -7.1110   35.0830 C.ar  500  PHE500     -0.0000
    100  N         17.5150  -11.4870   44.1730 N.3   508  PHE508     -0.1241
    101  CA        18.5940  -11.9100   43.2840 C.3   508  PHE508      0.1605
    102  C         19.4960  -12.9400   43.9490 C.2   508  PHE508      0.2264
    103  O         19.8060  -12.8300   45.1270 O.2   508  PHE508     -0.2867
    104  CB        19.4240  -10.7100   42.8260 C.3   508  PHE508      0.0534
    105  CG        18.7100   -9.8060   41.8610 C.ar  508  PHE508     -0.0203
    106  CD1       18.3950   -8.5060   42.2140 C.ar  508  PHE508     -0.0042
    107  CD2       18.3680  -10.2520   40.5940 C.ar  508  PHE508     -0.0042
    108  CE1       17.7430   -7.6600   41.3230 C.ar  508  PHE508     -0.0003
    109  CE2       17.7120   -9.4210   39.6980 C.ar  508  PHE508     -0.0003
    110  CZ        17.3940   -8.1220   40.0670 C.ar  508  PHE508     -0.0000
    111  N         22.6000  -13.7360   42.7130 N.3   510  TRP510     -0.1228
    112  CA        23.9910  -13.4090   42.4590 C.3   510  TRP510      0.1722
    113  C         24.2480  -11.9270   42.7180 C.2   510  TRP510      0.2437
    114  O         23.5740  -11.0680   42.1570 O.2   510  TRP510     -0.2733
    115  CB        24.3520  -13.7710   41.0110 C.3   510  TRP510      0.0563
    116  CG        25.7840  -13.5390   40.6570 C.ar  510  TRP510      0.0003
    117  CD1       26.2790  -12.5820   39.8200 C.ar  510  TRP510      0.0946
    118  CD2       26.9130  -14.2790   41.1380 C.ar  510  TRP510      0.0152
    119  NE1       27.6520  -12.6800   39.7490 N.ar  510  TRP510     -0.2442
    120  CE2       28.0660  -13.7130   40.5500 C.ar  510  TRP510      0.0810
    121  CE3       27.0610  -15.3700   42.0040 C.ar  510  TRP510      0.0012
    122  CZ2       29.3510  -14.2050   40.7970 C.ar  510  TRP510      0.0191
    123  CZ3       28.3350  -15.8510   42.2550 C.ar  510  TRP510      0.0001
    124  CH2       29.4650  -15.2720   41.6550 C.ar  510  TRP510      0.0015
    125  N         25.2270  -11.6290   43.5820 N.am  511  PRO511     -0.2718
    126  CA        25.6590  -10.2810   43.9750 C.3   511  PRO511      0.1535
    127  C         26.1340   -9.4060   42.8130 C.2   511  PRO511      0.2599
    128  O         26.2250   -8.1900   42.9640 O.2   511  PRO511     -0.2715
    129  CB        26.8170  -10.5580   44.9440 C.3   511  PRO511      0.0310
    130  CG        27.1740  -11.9870   44.7230 C.3   511  PRO511      0.0237
    131  CD        25.8750  -12.6490   44.4150 C.3   511  PRO511      0.0939
    132  N         26.4340  -10.0170   41.6720 N.am  512  GLY512     -0.1941
    133  CA        26.7130   -9.2710   40.4610 C.3   512  GLY512      0.2014
    134  C         27.7410   -8.1670   40.6180 C.2   512  GLY512      0.2639
    135  O         28.6380   -8.2530   41.4610 O.2   512  GLY512     -0.2714
    136  N         27.5960   -7.1310   39.7980 N.am  513  PHE513     -0.1959
    137  CA        28.5650   -6.0360   39.6880 C.3   513  PHE513      0.1771
    138  C         30.0050   -6.5280   39.5840 C.2   513  PHE513      0.2620
    139  O         30.3060   -7.3460   38.7130 O.2   513  PHE513     -0.2715
    140  CB        28.3550   -4.9880   40.7870 C.3   513  PHE513      0.0574
    141  CG        26.9710   -4.3950   40.7760 C.ar  513  PHE513     -0.0200
    142  CD1       25.8940   -5.1130   41.2760 C.ar  513  PHE513     -0.0042
    143  CD2       26.7370   -3.1390   40.2370 C.ar  513  PHE513     -0.0042
    144  CE1       24.6150   -4.5840   41.2550 C.ar  513  PHE513     -0.0003
    145  CE2       25.4580   -2.6000   40.2160 C.ar  513  PHE513     -0.0003
    146  CZ        24.3970   -3.3260   40.7240 C.ar  513  PHE513     -0.0000
    147  N         30.8900   -6.0440   40.4520 N.am  514  GLY514     -0.1954
    148  CA        32.2920   -6.4210   40.3800 C.3   514  GLY514      0.1869
    149  C         32.5250   -7.9120   40.5640 C.2   514  GLY514      0.2309
    150  O         33.5860   -8.4360   40.2190 O.2   514  GLY514     -0.2863
    151  N         31.1100  -10.1990   39.0520 N.3   516  ASN516     -0.1240
    152  CA        30.9630  -10.8940   37.7860 C.3   516  ASN516      0.1653
    153  C         32.3360  -11.2620   37.2460 C.2   516  ASN516      0.2266
    154  O         32.4530  -12.0500   36.3170 O.2   516  ASN516     -0.2867
    155  CB        30.1960  -10.0330   36.7830 C.3   516  ASN516      0.1155
    156  CG        28.7230   -9.8910   37.1360 C.2   516  ASN516      0.2627
    157  OD1       28.1900  -10.6480   37.9330 O.2   516  ASN516     -0.2716
    158  ND2       28.0590   -8.9270   36.5190 N.am  516  ASN516     -0.0877
@<TRIPOS>BOND
     1     1     2    1
     2    11    10    1
     3    10     7    1
     4    64    65    1
     5    31    29    1
     6     2     5    1
     7     2     3    1
     8     6     7    1
     9     6     3   am
    10    29    28    1
    11    29    30    1
    12     7     8    1
    13    26    27    2
    14    26    25    1
    15     3     4    2
    16    14    15    2
    17    14    13    1
    18    28    25    1
    19    67    66    2
    20    65    66    1
    21    65    68    1
    22    16    17    1
    23    12     8   am
    24    12    13    1
    25     8     9    2
    26    68    69    1
    27    25    24    1
    28    24    18   am
    29    86    88   ar
    30    86    84   ar
    31    18    17    1
    32    18    19    2
    33    17    20    1
    34    83    84   ar
    35    83    81   ar
    36    88    87   ar
    37    84    82   ar
    38    69    70    1
    39    32    33    1
    40    70    71    1
    41    71    72    2
    42    97    95   ar
    43    97    99   ar
    44    81    80   ar
    45    20    21    1
    46    22    21    2
    47    95    94   ar
    48    87    85   ar
    49    82    80   ar
    50    82    85   ar
    51    21    23   am
    52    75    76    1
    53    39    38    1
    54    99    98   ar
    55    36    33    1
    56    36    37    1
    57    80    79    1
    58    33    34    1
    59    72    74    1
    60    72    73    1
    61    35    34    2
    62    94    93    1
    63    94    96   ar
    64    93    90    1
    65    34    40   am
    66    98    96   ar
    67    79    76    1
    68    38    37    1
    69    76    77    1
    70   154   153    2
    71   158   156   am
    72    89    90    1
    73    89    77   am
    74   155   156    1
    75   155   152    1
    76    90    91    1
    77   156   157    2
    78    77    78    2
    79   153   152    1
    80    40    41    1
    81    91    92    2
    82    60    59    2
    83   152   151    1
    84    62    61    1
    85    41    42    1
    86    41    44    1
    87    59    58    1
    88   139   138    2
    89    42    43    2
    90    61    58    1
    91    61    63    1
    92    44    45    1
    93   138   137    1
    94   138   147   am
    95   137   136    1
    96   137   140    1
    97    58    57    1
    98   109   110   ar
    99   109   107   ar
   100   119   117   ar
   101   119   120   ar
   102   136   134   am
   103   117   116   ar
   104    47    45   am
   105   110   108   ar
   106   145   143   ar
   107   145   146   ar
   108   150   149    2
   109   143   141   ar
   110   148   147    1
   111   148   149    1
   112    45    46    2
   113   133   134    1
   114   133   132    1
   115   120   122   ar
   116   120   118   ar
   117   107   105   ar
   118   134   135    2
   119   116   115    1
   120   116   118   ar
   121   146   144   ar
   122   141   140    1
   123   141   142   ar
   124   122   124   ar
   125    57    50   am
   126   115   112    1
   127   118   121   ar
   128   144   142   ar
   129   108   106   ar
   130    51    50    2
   131   124   123   ar
   132   132   127   am
   133    50    49    1
   134   105   106   ar
   135   105   104    1
   136   121   123   ar
   137   114   113    2
   138   112   111    1
   139   112   113    1
   140    48    49    1
   141   113   125   am
   142   127   128    2
   143   127   126    1
   144   104   101    1
   145    49    52    1
   146   101   102    1
   147   101   100    1
   148   125   126    1
   149   125   131    1
   150    52    53    1
   151   102   103    2
   152   126   129    1
   153   131   130    1
   154   130   129    1
   155    53    54    1
   156    54    55    1
   157    55    56    1
