@<TRIPOS>MOLECULE
tmp/2gmxC01.pdb
 156 144 0 0 0
SMALL
GASTEIGER

@<TRIPOS>ATOM
      1  N         -8.2500  146.2830   56.7420 N.3    24  LYS24      -0.1245
      2  CA        -8.0570  146.6850   55.3570 C.3    24  LYS24       0.1561
      3  C         -7.0660  145.7590   54.6540 C.2    24  LYS24       0.2260
      4  O         -5.8630  145.8380   54.8950 O.2    24  LYS24      -0.2867
      5  CB        -7.5450  148.1390   55.3090 C.3    24  LYS24       0.0271
      6  CG        -7.2660  148.6820   53.8990 C.3    24  LYS24       0.0035
      7  CD        -6.5850  150.0640   53.9110 C.3    24  LYS24       0.0206
      8  CE        -6.1300  150.4540   52.4970 C.3    24  LYS24       0.1093
      9  NZ        -5.3910  151.7450   52.4210 N.3    24  LYS24      -0.1314
     10  N         -4.3660  144.8760   52.7930 N.3    26  ILE26      -0.1231
     11  CA        -3.3300  145.6860   52.1760 C.3    26  ILE26       0.1692
     12  C         -2.7870  144.8990   51.0040 C.2    26  ILE26       0.2593
     13  O         -2.4700  145.4590   49.9520 O.2    26  ILE26      -0.2718
     14  CB        -2.1920  145.9580   53.1580 C.3    26  ILE26       0.0266
     15  CG1       -2.7120  145.8650   54.5810 C.3    26  ILE26       0.0019
     16  CG2       -1.6660  147.3570   52.9760 C.3    26  ILE26       0.0020
     17  CD1       -1.6180  145.9590   55.6050 C.3    26  ILE26       0.0001
     18  N         -2.6930  143.5890   51.1950 N.am   27  GLY27      -0.1942
     19  CA        -2.2000  142.7360   50.1370 C.3    27  GLY27       0.2014
     20  C         -2.2780  141.2540   50.4410 C.2    27  GLY27       0.2640
     21  O         -3.1020  140.8040   51.2460 O.2    27  GLY27      -0.2714
     22  N         -1.4190  140.4980   49.7620 N.am   28  SER28      -0.1935
     23  CA        -1.3200  139.0560   49.9330 C.3    28  SER28       0.2055
     24  C          0.1640  138.7130   49.8640 C.2    28  SER28       0.2643
     25  O          0.7230  138.5770   48.7810 O.2    28  SER28      -0.2714
     26  CB        -2.0800  138.3280   48.8230 C.3    28  SER28       0.2130
     27  OG        -2.1150  136.9300   49.0590 O.3    28  SER28      -0.2179
     28  N          0.7950  138.5970   51.0290 N.am   29  GLY29      -0.1954
     29  CA         2.2120  138.2850   51.0880 C.3    29  GLY29       0.1869
     30  C          2.5590  136.9310   50.5040 C.2    29  GLY29       0.2309
     31  O          1.6740  136.1520   50.1490 O.2    29  GLY29      -0.2863
     32  N         -2.4570  139.6020   54.4270 N.3    34  VAL34      -0.1245
     33  CA        -2.1290  140.7410   55.2530 C.3    34  VAL34       0.1561
     34  C         -3.1200  141.8980   55.1480 C.2    34  VAL34       0.2260
     35  O         -3.3390  142.4410   54.0630 O.2    34  VAL34      -0.2867
     36  CB        -0.7470  141.2650   54.8810 C.3    34  VAL34       0.0252
     37  CG1       -0.3360  142.3610   55.8460 C.3    34  VAL34       0.0019
     38  CG2        0.2460  140.1230   54.8730 C.3    34  VAL34       0.0019
     39  N         -4.6090  145.7490   56.8790 N.3    36  ALA36      -0.1245
     40  CA        -4.0750  146.9550   57.4970 C.3    36  ALA36       0.1562
     41  C         -4.8490  147.3370   58.7460 C.2    36  ALA36       0.2260
     42  O         -5.0540  148.5190   59.0250 O.2    36  ALA36      -0.2867
     43  CB        -4.1050  148.1040   56.4990 C.3    36  ALA36       0.0290
     44  N         -2.0380  152.3240   63.3530 N.3    45  ASN45      -0.1240
     45  CA        -2.3000  151.2810   62.3700 C.3    45  ASN45       0.1653
     46  C         -1.2500  150.1830   62.2650 C.2    45  ASN45       0.2266
     47  O         -0.0770  150.3850   62.5750 O.2    45  ASN45      -0.2867
     48  CB        -2.5670  151.9070   60.9950 C.3    45  ASN45       0.1155
     49  CG        -4.0000  152.4090   60.8540 C.2    45  ASN45       0.2627
     50  OD1       -4.2680  153.6010   60.9750 O.2    45  ASN45      -0.2716
     51  ND2       -4.9290  151.4880   60.6130 N.am   45  ASN45      -0.0877
     52  N         -0.2890  145.8590   60.4830 N.3    47  ALA47      -0.1245
     53  CA        -0.4420  144.8180   59.4760 C.3    47  ALA47       0.1562
     54  C         -0.6490  143.5290   60.2290 C.2    47  ALA47       0.2260
     55  O         -0.1700  143.3660   61.3440 O.2    47  ALA47      -0.2867
     56  CB         0.7960  144.7170   58.6290 C.3    47  ALA47       0.0290
     57  N         -0.6020  139.2940   59.4980 N.3    49  LYS49      -0.1245
     58  CA        -0.3920  138.1840   58.5950 C.3    49  LYS49       0.1561
     59  C         -1.2030  137.0130   59.1000 C.2    49  LYS49       0.2260
     60  O         -1.0330  136.5980   60.2400 O.2    49  LYS49      -0.2867
     61  CB         1.0950  137.8200   58.5820 C.3    49  LYS49       0.0271
     62  CG         1.5960  137.1690   57.3070 C.3    49  LYS49       0.0035
     63  CD         3.1070  137.0250   57.3480 C.3    49  LYS49       0.0206
     64  CE         3.6920  136.7420   55.9680 C.3    49  LYS49       0.1093
     65  NZ         3.7210  137.9360   55.0740 N.3    49  LYS49      -0.1314
     66  N         11.1150  145.3640   59.8420 N.3    80  ILE80      -0.1245
     67  CA         9.7400  145.3600   60.3190 C.3    80  ILE80       0.1561
     68  C          9.5800  144.7250   61.6960 C.2    80  ILE80       0.2260
     69  O          9.7290  143.5180   61.8530 O.2    80  ILE80      -0.2867
     70  CB         8.8310  144.6390   59.3170 C.3    80  ILE80       0.0252
     71  CG1        8.5190  145.5850   58.1610 C.3    80  ILE80       0.0019
     72  CG2        7.5640  144.1680   59.9990 C.3    80  ILE80       0.0019
     73  CD1        7.9390  146.9190   58.6090 C.3    80  ILE80       0.0001
     74  N          1.8790  143.1960   63.4600 N.3   102  MET102     -0.1230
     75  CA         3.2140  143.7740   63.3050 C.3   102  MET102      0.1702
     76  C          3.2720  145.1440   62.6250 C.2   102  MET102      0.2592
     77  O          2.3800  145.5130   61.8540 O.2   102  MET102     -0.2718
     78  CB         4.0850  142.8110   62.4880 C.3   102  MET102      0.0401
     79  CG         3.5630  142.6340   61.0540 C.3   102  MET102      0.0596
     80  SD         4.4490  141.4710   59.9940 S.3   102  MET102     -0.1393
     81  CE         3.3870  140.0400   60.0900 C.3   102  MET102      0.0692
     82  N          4.3660  145.8580   62.8970 N.am  103  GLU103     -0.1966
     83  CA         4.6360  147.1820   62.3490 C.3   103  GLU103      0.1733
     84  C          4.1460  147.4200   60.9210 C.2   103  GLU103      0.2616
     85  O          4.2150  146.5330   60.0570 O.2   103  GLU103     -0.2715
     86  CB         6.1350  147.4660   62.4070 C.3   103  GLU103      0.0429
     87  CG         6.6450  147.7960   63.7880 C.3   103  GLU103      0.1163
     88  CD         8.1000  148.2270   63.7800 C.2   103  GLU103      0.3649
     89  OE1        8.4730  149.0640   62.9270 O.co2 103  GLU103     -0.2457
     90  OE2        8.8700  147.7390   64.6350 O.co2 103  GLU103     -0.2457
     91  N          3.6760  148.6460   60.6880 N.am  104  LEU104     -0.1963
     92  CA         3.1500  149.0740   59.3900 C.3   104  LEU104      0.1728
     93  C          3.6950  150.4480   59.0020 C.2   104  LEU104      0.2616
     94  O          3.7810  151.3540   59.8360 O.2   104  LEU104     -0.2715
     95  CB         1.6120  149.1030   59.4440 C.3   104  LEU104      0.0311
     96  CG         0.7630  149.5870   58.2640 C.3   104  LEU104      0.0022
     97  CD1       -0.6080  148.9290   58.3150 C.3   104  LEU104      0.0001
     98  CD2        0.6510  151.1080   58.3020 C.3   104  LEU104      0.0001
     99  N          4.0560  150.5910   57.7300 N.am  105  MET105     -0.1963
    100  CA         4.6140  151.8370   57.2110 C.3   105  MET105      0.1736
    101  C          3.6210  152.6610   56.4210 C.2   105  MET105      0.2616
    102  O          2.4660  152.7860   56.8050 O.2   105  MET105     -0.2715
    103  CB         5.8330  151.5590   56.3250 C.3   105  MET105      0.0427
    104  CG         7.0310  150.9530   57.0520 C.3   105  MET105      0.0599
    105  SD         7.8730  152.0940   58.1580 S.3   105  MET105     -0.1393
    106  CE         8.9910  152.8600   57.0200 C.3   105  MET105      0.0692
    107  N          4.0770  153.2150   55.3050 N.am  106  ASP106     -0.1957
    108  CA         3.2300  154.0610   54.4840 C.3   106  ASP106      0.1840
    109  C          2.8860  153.4330   53.1570 C.2   106  ASP106      0.2622
    110  O          1.7180  153.3740   52.7710 O.2   106  ASP106     -0.2715
    111  CB         3.9160  155.4010   54.2530 C.3   106  ASP106      0.1450
    112  CG         4.2300  156.1150   55.5490 C.2   106  ASP106      0.3671
    113  OD1        4.6310  157.2940   55.5030 O.co2 106  ASP106     -0.2456
    114  OD2        4.0750  155.4930   56.6210 O.co2 106  ASP106     -0.2456
    115  N          3.9110  152.9720   52.4530 N.am  107  ALA107     -0.1963
    116  CA         3.7200  152.3410   51.1580 C.3   107  ALA107      0.1728
    117  C          4.9820  151.5830   50.7760 C.2   107  ALA107      0.2616
    118  O          6.0940  152.0500   51.0100 O.2   107  ALA107     -0.2715
    119  CB         3.3930  153.3900   50.1080 C.3   107  ALA107      0.0334
    120  N          4.7970  150.4050   50.1940 N.am  108  ASN108     -0.1972
    121  CA         5.9120  149.5670   49.7870 C.3   108  ASN108      0.1688
    122  C          6.8420  150.3120   48.8510 C.2   108  ASN108      0.2292
    123  O          6.4600  151.2990   48.2270 O.2   108  ASN108     -0.2864
    124  CB         5.3960  148.2870   49.1220 C.3   108  ASN108      0.1181
    125  CG         4.4180  148.5660   48.0010 C.2   108  ASN108      0.2629
    126  OD1        3.6650  147.6830   47.5780 O.2   108  ASN108     -0.2716
    127  ND2        4.4240  149.7990   47.5080 N.am  108  ASN108     -0.0877
    128  N          8.3750  145.2060   46.5330 N.3   149  SER149     -0.1217
    129  CA         7.1990  144.9250   47.3430 C.3   149  SER149      0.1889
    130  C          7.4310  144.4470   48.7730 C.2   149  SER149      0.2288
    131  O          6.5160  144.5050   49.5960 O.2   149  SER149     -0.2866
    132  CB         6.3320  143.9020   46.6140 C.3   149  SER149      0.2089
    133  OG         6.2960  144.1890   45.2250 O.3   149  SER149     -0.2183
    134  N          9.5680  148.5960   52.4530 N.3   152  VAL152     -0.1245
    135  CA         8.5970  149.6390   52.7610 C.3   152  VAL152      0.1561
    136  C          9.2690  150.9000   53.2880 C.2   152  VAL152      0.2260
    137  O         10.3390  150.8340   53.8910 O.2   152  VAL152     -0.2867
    138  CB         7.5980  149.1420   53.8000 C.3   152  VAL152      0.0252
    139  CG1        6.7710  148.0340   53.2150 C.3   152  VAL152      0.0019
    140  CG2        8.3390  148.6390   55.0220 C.3   152  VAL152      0.0019
    141  N         10.7190  143.3460   54.5720 N.3   162  LEU162     -0.1231
    142  CA         9.6690  142.3740   54.8810 C.3   162  LEU162      0.1693
    143  C          9.9320  140.8690   54.9740 C.2   162  LEU162      0.2592
    144  O         11.0530  140.3770   54.8800 O.2   162  LEU162     -0.2718
    145  CB         8.5050  142.5520   53.9070 C.3   162  LEU162      0.0284
    146  CG         7.6210  143.7850   54.0410 C.3   162  LEU162      0.0019
    147  CD1        6.3070  143.5200   53.3130 C.3   162  LEU162      0.0001
    148  CD2        7.3630  144.0740   55.5060 C.3   162  LEU162      0.0001
    149  N          8.8220  140.1660   55.1720 N.am  163  ASP163     -0.1974
    150  CA         8.7350  138.7170   55.2720 C.3   163  ASP163      0.1709
    151  C          9.5700  137.9380   56.2600 C.2   163  ASP163      0.2293
    152  O          9.3720  138.0300   57.4680 O.2   163  ASP163     -0.2864
    153  CB         8.9200  138.0780   53.8980 C.3   163  ASP163      0.1436
    154  CG         7.6630  137.3810   53.4160 C.2   163  ASP163      0.3671
    155  OD1        7.7800  136.2770   52.8410 O.co2 163  ASP163     -0.2456
    156  OD2        6.5600  137.9430   53.6120 O.co2 163  ASP163     -0.2456
@<TRIPOS>BOND
     1   133   132    1
     2   128   129    1
     3   132   129    1
     4   129   130    1
     5   127   125   am
     6   126   125    2
     7   125   124    1
     8   123   122    2
     9   130   131    2
    10    25    24    2
    11    26    27    1
    12    26    23    1
    13   122   121    1
    14   124   121    1
    15    22    23    1
    16    22    20   am
    17   121   120    1
    18    24    23    1
    19    24    28   am
    20    13    12    2
    21   119   116    1
    22    19    20    1
    23    19    18    1
    24    31    30    2
    25   120   117   am
    26    20    21    2
    27    30    29    1
    28   117   118    2
    29   117   116    1
    30    12    18   am
    31    12    11    1
    32    28    29    1
    33   116   115    1
    34    11    10    1
    35    11    14    1
    36     9     8    1
    37   134   135    1
    38   115   109   am
    39     8     7    1
    40   135   136    1
    41   135   138    1
    42   110   109    2
    43   155   154   ar
    44    16    14    1
    45   109   108    1
    46    14    15    1
    47   139   138    1
    48   136   137    2
    49   147   146    1
    50   154   156   ar
    51   154   153    1
    52   138   140    1
    53   153   150    1
    54     6     7    1
    55     6     5    1
    56   145   146    1
    57   145   142    1
    58   146   148    1
    59    35    34    2
    60   111   108    1
    61   111   112    1
    62    32    33    1
    63   108   107    1
    64   141   142    1
    65    15    17    1
    66     3     4    2
    67     3     2    1
    68    38    36    1
    69   144   143    2
    70    36    33    1
    71    36    37    1
    72   142   143    1
    73   143   149   am
    74    65    64    1
    75    34    33    1
    76   149   150    1
    77   150   151    1
    78   107   101   am
    79     5     2    1
    80     2     1    1
    81   113   112   ar
    82   112   114   ar
    83    64    63    1
    84   151   152    2
    85   103   104    1
    86   103   100    1
    87   101   102    2
    88   101   100    1
    89    43    40    1
    90    39    40    1
    91   106   105    1
    92   104   105    1
    93   100    99    1
    94    62    63    1
    95    62    61    1
    96    40    41    1
    97    99    93   am
    98    71    73    1
    99    71    70    1
   100    96    98    1
   101    96    97    1
   102    96    95    1
   103    61    58    1
   104    58    59    1
   105    58    57    1
   106    56    53    1
   107    41    42    2
   108    93    92    1
   109    93    94    2
   110    59    60    2
   111    70    72    1
   112    70    67    1
   113    92    95    1
   114    92    91    1
   115    53    54    1
   116    53    52    1
   117    66    67    1
   118    80    81    1
   119    80    79    1
   120    85    84    2
   121    54    55    2
   122    67    68    1
   123    51    49   am
   124    91    84   am
   125    49    50    2
   126    49    48    1
   127    84    83    1
   128    48    45    1
   129    79    78    1
   130    68    69    2
   131    77    76    2
   132    46    45    1
   133    46    47    2
   134    83    86    1
   135    83    82    1
   136    45    44    1
   137    86    87    1
   138    78    75    1
   139    76    82   am
   140    76    75    1
   141    89    88   ar
   142    75    74    1
   143    88    87    1
   144    88    90   ar
