@<TRIPOS>MOLECULE
tmp/2gn2A00.pdb
 88 83 0 0 0
SMALL
GASTEIGER

@<TRIPOS>ATOM
      1  N        -20.8080  -70.9350  -31.2980 N.3    50  GLN50      -0.1231
      2  CA       -20.8010  -69.4840  -31.2100 C.3    50  GLN50       0.1698
      3  C        -19.5450  -68.9830  -31.9260 C.2    50  GLN50       0.2592
      4  O        -18.5820  -69.7360  -32.0890 O.2    50  GLN50      -0.2718
      5  CB       -20.8230  -69.0600  -29.7390 C.3    50  GLN50       0.0381
      6  CG       -20.8390  -67.5690  -29.4930 C.3    50  GLN50       0.0905
      7  CD       -21.9980  -66.8930  -30.1570 C.2    50  GLN50       0.2608
      8  OE1      -21.8700  -66.3740  -31.2690 O.2    50  GLN50      -0.2717
      9  NE2      -23.1540  -66.9170  -29.4990 N.am   50  GLN50      -0.0878
     10  N        -19.5630  -67.7320  -32.3780 N.am   51  ARG51      -0.1966
     11  CA       -18.3970  -67.1140  -33.0150 C.3    51  ARG51       0.1729
     12  C        -17.1460  -67.2370  -32.1270 C.2    51  ARG51       0.2617
     13  O        -17.2300  -67.0610  -30.9050 O.2    51  ARG51      -0.2715
     14  CB       -18.6800  -65.6380  -33.3380 C.3    51  ARG51       0.0348
     15  CG       -19.7380  -65.3890  -34.4330 C.3    51  ARG51       0.0492
     16  CD       -19.3820  -66.0530  -35.7790 C.3    51  ARG51       0.2205
     17  NE       -17.9790  -65.8380  -36.1720 N.pl3  51  ARG51      -0.0865
     18  CZ       -17.4960  -64.7040  -36.6840 C.cat  51  ARG51       0.5346
     19  NH1      -16.2150  -64.6160  -37.0040 N.pl3  51  ARG51       0.1354
     20  NH2      -18.2660  -63.6410  -36.8580 N.pl3  51  ARG51       0.1354
     21  N        -16.0080  -67.5580  -32.7620 N.am   52  THR52      -0.1937
     22  CA       -14.7000  -67.8410  -32.1080 C.3    52  THR52       0.2028
     23  C        -14.6070  -69.2220  -31.4560 C.2    52  THR52       0.2642
     24  O        -13.5230  -69.6400  -31.0280 O.2    52  THR52      -0.2714
     25  CB       -14.2610  -66.7760  -31.0730 C.3    52  THR52       0.1808
     26  OG1      -15.0030  -66.9290  -29.8550 O.3    52  THR52      -0.2208
     27  CG2      -14.4460  -65.3740  -31.6210 C.3    52  THR52       0.0379
     28  N        -15.7270  -69.9370  -31.3930 N.am   53  GLY53      -0.1954
     29  CA       -15.7220  -71.3130  -30.9040 C.3    53  GLY53       0.1869
     30  C        -15.9990  -71.4630  -29.4180 C.2    53  GLY53       0.2309
     31  O        -16.0170  -72.5790  -28.9090 O.2    53  GLY53      -0.2863
     32  N         -9.4650  -64.6560  -28.0370 N.3    85  GLN85      -0.1245
     33  CA       -10.2060  -64.6840  -29.3000 C.3    85  GLN85       0.1566
     34  C        -11.4400  -63.7870  -29.2510 C.2    85  GLN85       0.2260
     35  O        -11.7120  -63.0600  -30.2040 O.2    85  GLN85      -0.2867
     36  CB       -10.5900  -66.1250  -29.6760 C.3    85  GLN85       0.0367
     37  CG        -9.3720  -67.0800  -29.6560 C.3    85  GLN85       0.0905
     38  CD        -9.5630  -68.3930  -30.4090 C.2    85  GLN85       0.2608
     39  OE1      -10.6030  -68.6500  -31.0140 O.2    85  GLN85      -0.2717
     40  NE2       -8.5330  -69.2320  -30.3750 N.am   85  GLN85      -0.0878
     41  N         -2.1350  -72.6520  -32.1950 N.3   109  SER109     -0.1217
     42  CA        -3.4330  -72.4640  -32.8360 C.3   109  SER109      0.1889
     43  C         -4.1750  -71.2440  -32.3040 C.2   109  SER109      0.2288
     44  O         -4.8280  -70.5120  -33.0560 O.2   109  SER109     -0.2866
     45  CB        -4.3090  -73.7000  -32.6030 C.3   109  SER109      0.2089
     46  OG        -4.6330  -73.8330  -31.2240 O.3   109  SER109     -0.2183
     47  N         -2.4400  -67.9220  -33.3310 N.3   112  ALA112     -0.1231
     48  CA        -2.7830  -67.6480  -34.7300 C.3   112  ALA112      0.1694
     49  C         -4.2170  -67.1490  -34.8800 C.2   112  ALA112      0.2591
     50  O         -4.4770  -66.1910  -35.6080 O.2   112  ALA112     -0.2718
     51  CB        -2.5620  -68.8780  -35.5880 C.3   112  ALA112      0.0304
     52  N         -5.1430  -67.7770  -34.1760 N.am  113  ALA113     -0.1980
     53  CA        -6.5360  -67.3980  -34.2960 C.3   113  ALA113      0.1597
     54  C         -6.7680  -65.9580  -33.8240 C.2   113  ALA113      0.2287
     55  O         -7.4690  -65.1940  -34.4940 O.2   113  ALA113     -0.2864
     56  CB        -7.4140  -68.3640  -33.5340 C.3   113  ALA113      0.0319
     57  N         -5.6960  -63.5940  -36.3470 N.3   116  ASP116     -0.1225
     58  CA        -6.6260  -63.5130  -37.4580 C.3   116  ASP116      0.1805
     59  C         -7.7290  -62.5260  -37.1220 C.2   116  ASP116      0.2597
     60  O         -8.1620  -61.7770  -37.9810 O.2   116  ASP116     -0.2718
     61  CB        -7.2160  -64.8870  -37.8050 C.3   116  ASP116      0.1424
     62  CG        -7.6970  -64.9740  -39.2570 C.2   116  ASP116      0.3668
     63  OD1       -7.6520  -63.9580  -39.9840 O.co2 116  ASP116     -0.2456
     64  OD2       -8.1220  -66.0680  -39.6800 O.co2 116  ASP116     -0.2456
     65  N         -8.1400  -62.4950  -35.8570 N.am  117  TYR117     -0.1976
     66  CA        -9.2570  -61.6520  -35.4330 C.3   117  TYR117      0.1639
     67  C         -8.9270  -60.1540  -35.2810 C.2   117  TYR117      0.2290
     68  O         -9.7980  -59.3790  -34.9030 O.2   117  TYR117     -0.2864
     69  CB        -9.8740  -62.2030  -34.1450 C.3   117  TYR117      0.0560
     70  CG       -10.6190  -63.5090  -34.3270 C.ar  117  TYR117     -0.0198
     71  CD1      -10.3530  -64.6000  -33.5110 C.ar  117  TYR117     -0.0009
     72  CD2      -11.5950  -63.6510  -35.3030 C.ar  117  TYR117     -0.0009
     73  CE1      -11.0260  -65.7930  -33.6660 C.ar  117  TYR117      0.0417
     74  CE2      -12.2720  -64.8510  -35.4670 C.ar  117  TYR117      0.0417
     75  CZ       -11.9810  -65.9120  -34.6450 C.ar  117  TYR117      0.1957
     76  OH       -12.6470  -67.0910  -34.7910 O.3   117  TYR117     -0.2866
     77  N        -15.5110  -75.3460  -28.2410 N.3   310  GLY310     -0.1210
     78  CA       -15.0020  -76.3690  -29.1450 C.3   310  GLY310      0.1956
     79  C        -13.5760  -76.1140  -29.6170 C.2   310  GLY310      0.2611
     80  O        -13.1650  -76.6670  -30.6200 O.2   310  GLY310     -0.2717
     81  N        -12.8190  -75.2940  -28.8830 N.am  311  ASN311     -0.1974
     82  CA       -11.4750  -74.8870  -29.3040 C.3   311  ASN311      0.1688
     83  C        -10.3940  -75.8370  -28.7850 C.2   311  ASN311      0.2292
     84  O         -9.7520  -75.6160  -27.7540 O.2   311  ASN311     -0.2864
     85  CB       -11.2110  -73.4270  -28.9280 C.3   311  ASN311      0.1181
     86  CG       -12.1000  -72.4610  -29.7130 C.2   311  ASN311      0.2629
     87  OD1      -12.6290  -72.8200  -30.7560 O.2   311  ASN311     -0.2716
     88  ND2      -12.2740  -71.2470  -29.2090 N.am  311  ASN311     -0.0877
@<TRIPOS>BOND
     1    63    62   ar
     2    64    62   ar
     3    62    61    1
     4    60    59    2
     5    61    58    1
     6    58    59    1
     7    58    57    1
     8    59    65   am
     9    19    18    1
    10    20    18    1
    11    18    17    2
    12    17    16    1
    13    65    66    1
    14    16    15    1
    15    50    49    2
    16    51    48    1
    17    74    72   ar
    18    74    75   ar
    19    66    67    1
    20    66    69    1
    21    72    70   ar
    22    67    68    2
    23    49    48    1
    24    49    52   am
    25    76    75    1
    26    48    47    1
    27    75    73   ar
    28    55    54    2
    29    15    14    1
    30    70    69    1
    31    70    71   ar
    32    53    52    1
    33    53    54    1
    34    53    56    1
    35    73    71   ar
    36    14    11    1
    37    44    43    2
    38    11    10    1
    39    11    12    1
    40    42    45    1
    41    42    43    1
    42    42    41    1
    43    21    12   am
    44    21    22    1
    45    45    46    1
    46    10     3   am
    47    12    13    2
    48    22    23    1
    49    22    25    1
    50     4     3    2
    51     3     2    1
    52    27    25    1
    53    23    28   am
    54    23    24    2
    55    28    29    1
    56     1     2    1
    57     8     7    2
    58     2     5    1
    59    25    26    1
    60    39    38    2
    61    29    30    1
    62    87    86    2
    63    80    79    2
    64    38    40   am
    65    38    37    1
    66    35    34    2
    67     7     9   am
    68     7     6    1
    69     5     6    1
    70    86    88   am
    71    86    85    1
    72    36    37    1
    73    36    33    1
    74    79    78    1
    75    79    81   am
    76    30    31    2
    77    82    85    1
    78    82    81    1
    79    82    83    1
    80    33    34    1
    81    33    32    1
    82    78    77    1
    83    83    84    2
