@<TRIPOS>MOLECULE
tmp/2gn6A01.pdb
 248 242 0 0 0
SMALL
GASTEIGER

@<TRIPOS>ATOM
      1  N          8.7560   39.2900    2.2520 N.3    87  LYS87      -0.1231
      2  CA         8.2230   37.9220    2.2770 C.3    87  LYS87       0.1693
      3  C          8.5950   37.0190    3.4440 C.2    87  LYS87       0.2592
      4  O          8.2870   35.8350    3.4300 O.2    87  LYS87      -0.2718
      5  CB         8.5730   37.2030    0.9710 C.3    87  LYS87       0.0285
      6  CG        10.0480   36.9200    0.8020 C.3    87  LYS87       0.0035
      7  CD        10.3630   36.3890   -0.5990 C.3    87  LYS87       0.0206
      8  CE        11.8610   36.1480   -0.7800 C.3    87  LYS87       0.1093
      9  NZ        12.3800   35.0780    0.1190 N.3    87  LYS87      -0.1314
     10  N          9.2550   37.5580    4.4520 N.am   88  HIS88      -0.1962
     11  CA         9.6090   36.7340    5.5890 C.3    88  HIS88       0.1787
     12  C          8.3270   36.6030    6.4030 C.2    88  HIS88       0.2620
     13  O          7.9890   37.4850    7.1950 O.2    88  HIS88      -0.2715
     14  CB        10.7130   37.4110    6.3910 C.3    88  HIS88       0.0785
     15  CG        11.3570   36.5230    7.4060 C.ar   88  HIS88       0.0821
     16  ND1       10.7570   36.2060    8.6060 N.ar   88  HIS88      -0.2267
     17  CD2       12.5710   35.9230    7.4190 C.ar   88  HIS88       0.1154
     18  CE1       11.5820   35.4570    9.3190 C.ar   88  HIS88       0.1986
     19  NE2       12.6880   35.2710    8.6220 N.ar   88  HIS88      -0.2212
     20  N          7.6150   35.5000    6.1930 N.am   89  VAL89      -0.1977
     21  CA         6.3430   35.2590    6.8600 C.3    89  VAL89       0.1596
     22  C          6.2870   35.6070    8.3460 C.2    89  VAL89       0.2287
     23  O          5.4650   36.4260    8.7750 O.2    89  VAL89      -0.2864
     24  CB         5.8840   33.7980    6.6530 C.3    89  VAL89       0.0276
     25  CG1        4.5210   33.5810    7.2920 C.3    89  VAL89       0.0022
     26  CG2        5.8200   33.4870    5.1540 C.3    89  VAL89       0.0022
     27  N          2.7070   34.0950   -5.2290 N.3   127  THR127     -0.1203
     28  CA         3.2760   33.0250   -4.4250 C.3   127  THR127      0.1994
     29  C          2.1600   32.0810   -4.0340 C.2   127  THR127      0.2618
     30  O          1.0120   32.5050   -3.8920 O.2   127  THR127     -0.2717
     31  CB         3.9170   33.5650   -3.1450 C.3   127  THR127      0.1784
     32  OG1        4.1300   32.4850   -2.2280 O.3   127  THR127     -0.2211
     33  CG2        3.0160   34.5990   -2.4980 C.3   127  THR127      0.0376
     34  N          2.4880   30.8050   -3.8650 N.am  128  ASP128     -0.1959
     35  CA         1.4800   29.8250   -3.4920 C.3   128  ASP128      0.1840
     36  C          0.8710   30.1860   -2.1460 C.2   128  ASP128      0.2621
     37  O         -0.1960   29.6930   -1.7790 O.2   128  ASP128     -0.2715
     38  CB         2.0800   28.4100   -3.4380 C.3   128  ASP128      0.1450
     39  CG         3.3520   28.3330   -2.6000 C.2   128  ASP128      0.3671
     40  OD1        3.4460   27.4210   -1.7530 O.co2 128  ASP128     -0.2456
     41  OD2        4.2680   29.1660   -2.7920 O.co2 128  ASP128     -0.2456
     42  N          1.5390   31.0590   -1.4080 N.am  129  LYS129     -0.1977
     43  CA         1.0250   31.4420   -0.1070 C.3   129  LYS129      0.1596
     44  C         -0.1940   32.3400   -0.2060 C.2   129  LYS129      0.2287
     45  O         -0.9000   32.5410    0.7840 O.2   129  LYS129     -0.2864
     46  CB         2.1300   32.1090    0.7050 C.3   129  LYS129      0.0298
     47  CG         3.1430   31.1080    1.1900 C.3   129  LYS129      0.0038
     48  CD         4.3760   31.7540    1.7640 C.3   129  LYS129      0.0206
     49  CE         5.1610   30.7570    2.6100 C.3   129  LYS129      0.1093
     50  NZ         5.2150   29.3950    1.9830 N.3   129  LYS129     -0.1314
     51  N          1.3480   37.8250    5.2500 N.3   137  TYR137     -0.1241
     52  CA         2.1310   37.9620    4.0320 C.3   137  TYR137      0.1605
     53  C          1.3240   37.4570    2.8360 C.2   137  TYR137      0.2264
     54  O          1.1520   38.1630    1.8370 O.2   137  TYR137     -0.2867
     55  CB         3.4280   37.1660    4.1450 C.3   137  TYR137      0.0534
     56  CG         4.0450   36.8500    2.8110 C.ar  137  TYR137     -0.0201
     57  CD1        4.5240   37.8680    1.9830 C.ar  137  TYR137     -0.0009
     58  CD2        4.1450   35.5310    2.3630 C.ar  137  TYR137     -0.0009
     59  CE1        5.0880   37.5840    0.7460 C.ar  137  TYR137      0.0417
     60  CE2        4.7070   35.2310    1.1230 C.ar  137  TYR137      0.0417
     61  CZ         5.1790   36.2610    0.3190 C.ar  137  TYR137      0.1957
     62  OH         5.7530   35.9710   -0.9070 O.3   137  TYR137     -0.2866
     63  N          4.1250   30.6480   -8.2930 N.3   167  TYR167     -0.1227
     64  CA         4.7710   29.3540   -8.1920 C.3   167  TYR167      0.1736
     65  C          5.2560   29.1680   -6.7690 C.2   167  TYR167      0.2596
     66  O          5.3370   30.1290   -6.0130 O.2   167  TYR167     -0.2718
     67  CB         5.9140   29.2170   -9.2030 C.3   167  TYR167      0.0548
     68  CG         6.9110   30.3480   -9.2350 C.ar  167  TYR167     -0.0200
     69  CD1        7.7650   30.5830   -8.1640 C.ar  167  TYR167     -0.0009
     70  CD2        7.0250   31.1630  -10.3600 C.ar  167  TYR167     -0.0009
     71  CE1        8.7140   31.6000   -8.2120 C.ar  167  TYR167      0.0417
     72  CE2        7.9680   32.1820  -10.4160 C.ar  167  TYR167      0.0417
     73  CZ         8.8110   32.3960   -9.3380 C.ar  167  TYR167      0.1957
     74  OH         9.7430   33.4110   -9.3800 O.3   167  TYR167     -0.2866
     75  N          5.5540   27.9290   -6.3970 N.am  168  GLY168     -0.1942
     76  CA         5.9820   27.6450   -5.0360 C.3   168  GLY168      0.2014
     77  C          7.4150   27.9370   -4.6230 C.2   168  GLY168      0.2639
     78  O          8.0910   28.7950   -5.1940 O.2   168  GLY168     -0.2714
     79  N          7.8700   27.1950   -3.6170 N.am  169  ASN169     -0.1958
     80  CA         9.2080   27.3430   -3.0580 C.3   169  ASN169      0.1819
     81  C         10.3220   27.3260   -4.0900 C.2   169  ASN169      0.2621
     82  O         10.3820   26.4460   -4.9560 O.2   169  ASN169     -0.2715
     83  CB         9.4670   26.2420   -2.0290 C.3   169  ASN169      0.1195
     84  CG         8.3770   26.1600   -0.9750 C.2   169  ASN169      0.2630
     85  OD1        8.6520   26.2220    0.2260 O.2   169  ASN169     -0.2716
     86  ND2        7.1280   26.0150   -1.4200 N.am  169  ASN169     -0.0877
     87  N         11.2080   28.3100   -3.9870 N.am  170  VAL170     -0.1977
     88  CA        12.3440   28.4100   -4.8890 C.3   170  VAL170      0.1596
     89  C         13.5270   27.6840   -4.2650 C.2   170  VAL170      0.2287
     90  O         14.1670   28.1880   -3.3440 O.2   170  VAL170     -0.2864
     91  CB        12.7240   29.8790   -5.1550 C.3   170  VAL170      0.0276
     92  CG1       14.0300   29.9550   -5.9320 C.3   170  VAL170      0.0022
     93  CG2       11.6150   30.5530   -5.9370 C.3   170  VAL170      0.0022
     94  N         16.5130   29.4390   -2.1200 N.3   173  SER173     -0.1202
     95  CA        16.3440   30.8840   -2.2920 C.3   173  SER173      0.2020
     96  C         17.0720   31.6400   -1.1790 C.2   173  SER173      0.2619
     97  O         17.3140   31.0890   -0.1050 O.2   173  SER173     -0.2717
     98  CB        14.8630   31.2580   -2.2850 C.3   173  SER173      0.2103
     99  OG        14.7010   32.6510   -2.4910 O.3   173  SER173     -0.2182
    100  N         17.4090   32.9010   -1.4430 N.am  174  ARG174     -0.1965
    101  CA        18.1340   33.7390   -0.4840 C.3   174  ARG174      0.1729
    102  C         17.5210   33.7830    0.9250 C.2   174  ARG174      0.2617
    103  O         17.0290   34.8230    1.3770 O.2   174  ARG174     -0.2715
    104  CB        18.2760   35.1680   -1.0370 C.3   174  ARG174      0.0348
    105  CG        19.2220   36.0500   -0.2210 C.3   174  ARG174      0.0492
    106  CD        19.3600   37.4700   -0.7710 C.3   174  ARG174      0.2205
    107  NE        18.1070   38.2210   -0.7290 N.pl3 174  ARG174     -0.0865
    108  CZ        18.0320   39.5500   -0.7230 C.cat 174  ARG174      0.5346
    109  NH1       19.1390   40.2790   -0.7520 N.pl3 174  ARG174      0.1354
    110  NH2       16.8500   40.1520   -0.6910 N.pl3 174  ARG174      0.1354
    111  N         17.5670   32.6510    1.6200 N.am  175  GLY175     -0.1940
    112  CA        17.0230   32.5890    2.9610 C.3   175  GLY175      0.2014
    113  C         15.9820   31.5040    3.1450 C.2   175  GLY175      0.2640
    114  O         15.1420   31.6010    4.0390 O.2   175  GLY175     -0.2714
    115  N         16.0320   30.4700    2.3120 N.am  176  SER176     -0.1935
    116  CA        15.0700   29.3770    2.4100 C.3   176  SER176      0.2055
    117  C         15.6050   28.2100    3.2380 C.2   176  SER176      0.2642
    118  O         16.4320   28.4000    4.1300 O.2   176  SER176     -0.2714
    119  CB        14.6750   28.8880    1.0140 C.3   176  SER176      0.2130
    120  OG        15.7890   28.3820    0.3070 O.3   176  SER176     -0.2179
    121  N         15.1250   27.0050    2.9400 N.am  177  VAL177     -0.1977
    122  CA        15.5440   25.8060    3.6610 C.3   177  VAL177      0.1596
    123  C         16.9230   25.3070    3.2270 C.2   177  VAL177      0.2287
    124  O         17.8510   25.2540    4.0380 O.2   177  VAL177     -0.2864
    125  CB        14.5020   24.6590    3.4890 C.3   177  VAL177      0.0276
    126  CG1       14.2100   24.4260    2.0150 C.3   177  VAL177      0.0022
    127  CG2       15.0150   23.3820    4.1330 C.3   177  VAL177      0.0022
    128  N         20.2840   26.7250    4.1650 N.3   180  PHE180     -0.1227
    129  CA        20.4320   26.7500    5.6140 C.3   180  PHE180      0.1736
    130  C         21.1750   25.4850    6.0250 C.2   180  PHE180      0.2595
    131  O         22.1230   25.5340    6.8130 O.2   180  PHE180     -0.2718
    132  CB        19.0600   26.7920    6.2930 C.3   180  PHE180      0.0547
    133  CG        19.0190   27.6620    7.5200 C.ar  180  PHE180     -0.0202
    134  CD1       19.0890   29.0490    7.4060 C.ar  180  PHE180     -0.0042
    135  CD2       18.9280   27.0970    8.7890 C.ar  180  PHE180     -0.0042
    136  CE1       19.0690   29.8600    8.5380 C.ar  180  PHE180     -0.0003
    137  CE2       18.9080   27.9000    9.9300 C.ar  180  PHE180     -0.0003
    138  CZ        18.9780   29.2840    9.8040 C.ar  180  PHE180     -0.0000
    139  N         20.7410   24.3560    5.4700 N.am  181  PHE181     -0.1976
    140  CA        21.3450   23.0530    5.7430 C.3   181  PHE181      0.1639
    141  C         22.8160   23.0400    5.3120 C.2   181  PHE181      0.2290
    142  O         23.5190   22.0400    5.4650 O.2   181  PHE181     -0.2864
    143  CB        20.5540   21.9650    5.0050 C.3   181  PHE181      0.0560
    144  CG        19.1570   21.7640    5.5330 C.ar  181  PHE181     -0.0200
    145  CD1       18.5050   22.7770    6.2300 C.ar  181  PHE181     -0.0042
    146  CD2       18.4930   20.5610    5.3330 C.ar  181  PHE181     -0.0042
    147  CE1       17.2180   22.5920    6.7190 C.ar  181  PHE181     -0.0003
    148  CE2       17.2020   20.3660    5.8190 C.ar  181  PHE181     -0.0003
    149  CZ        16.5650   21.3820    6.5130 C.ar  181  PHE181     -0.0000
    150  N         20.1480   20.0030   12.8230 N.3   192  ILE192     -0.1231
    151  CA        19.3470   20.8680   11.9440 C.3   192  ILE192      0.1678
    152  C         17.8280   20.6810   12.1190 C.2   192  ILE192      0.2434
    153  O         17.2500   19.6980   11.6430 O.2   192  ILE192     -0.2733
    154  CB        19.7390   20.6370   10.4470 C.3   192  ILE192      0.0265
    155  CG1       21.2040   21.0530   10.2240 C.3   192  ILE192      0.0019
    156  CG2       18.7980   21.4140    9.5280 C.3   192  ILE192      0.0020
    157  CD1       21.7370   20.8120    8.8160 C.3   192  ILE192      0.0001
    158  N         17.1660   21.6430   12.7960 N.am  193  PRO193     -0.2718
    159  CA        15.7250   21.6580   13.0800 C.3   193  PRO193      0.1535
    160  C         14.7860   21.3050   11.9210 C.2   193  PRO193      0.2598
    161  O         15.0490   21.6340   10.7630 O.2   193  PRO193     -0.2715
    162  CB        15.4970   23.0790   13.5910 C.3   193  PRO193      0.0310
    163  CG        16.7640   23.3700   14.3130 C.3   193  PRO193      0.0237
    164  CD        17.8020   22.8640   13.3290 C.3   193  PRO193      0.0939
    165  N         13.6870   20.6330   12.2590 N.am  194  ILE194     -0.1964
    166  CA        12.6660   20.2270   11.2960 C.3   194  ILE194      0.1727
    167  C         11.2920   20.5700   11.8940 C.2   194  ILE194      0.2616
    168  O         11.2170   21.2490   12.9200 O.2   194  ILE194     -0.2715
    169  CB        12.7580   18.7100   10.9910 C.3   194  ILE194      0.0290
    170  CG1       14.1740   18.3690   10.5200 C.3   194  ILE194      0.0022
    171  CG2       11.7630   18.3190    9.9050 C.3   194  ILE194      0.0023
    172  CD1       14.6020   19.0940    9.2560 C.3   194  ILE194      0.0001
    173  N         10.2140   20.1120   11.2590 N.am  195  THR195     -0.1951
    174  CA         8.8670   20.4090   11.7430 C.3   195  THR195      0.1897
    175  C          7.9310   19.2010   11.6920 C.2   195  THR195      0.2313
    176  O          8.2500   18.1370   12.2200 O.2   195  THR195     -0.2863
    177  CB         8.2330   21.5630   10.9290 C.3   195  THR195      0.1794
    178  OG1        8.1770   21.1940    9.5460 O.3   195  THR195     -0.2208
    179  CG2        9.0500   22.8470   11.0820 C.3   195  THR195      0.0378
    180  N          4.6730   17.6860    6.3340 N.3   199  MET199     -0.1245
    181  CA         5.0390   18.8840    5.5840 C.3   199  MET199      0.1570
    182  C          5.4530   18.6370    4.1260 C.2   199  MET199      0.2261
    183  O          6.4670   17.9910    3.8640 O.2   199  MET199     -0.2867
    184  CB         6.1780   19.5960    6.3220 C.3   199  MET199      0.0387
    185  CG         6.2350   21.0960    6.1100 C.3   199  MET199      0.0595
    186  SD         4.8560   21.9680    6.8780 S.3   199  MET199     -0.1393
    187  CE         5.4220   22.0830    8.5560 C.3   199  MET199      0.0692
    188  N          5.7100   20.5420    0.0150 N.3   201  ARG201     -0.1245
    189  CA         5.8310   21.8160   -0.6840 C.3   201  ARG201      0.1563
    190  C          6.0550   21.6170   -2.1790 C.2   201  ARG201      0.2260
    191  O          6.4790   20.5490   -2.6170 O.2   201  ARG201     -0.2867
    192  CB         7.0190   22.6080   -0.1210 C.3   201  ARG201      0.0307
    193  CG         6.8230   23.1940    1.2640 C.3   201  ARG201      0.0489
    194  CD         6.2450   24.5940    1.1840 C.3   201  ARG201      0.2205
    195  NE         6.0590   25.2020    2.5000 N.pl3 201  ARG201     -0.0865
    196  CZ         5.2520   24.7200    3.4460 C.cat 201  ARG201      0.5346
    197  NH1        4.5520   23.6120    3.2290 N.pl3 201  ARG201      0.1354
    198  NH2        5.1340   25.3510    4.6090 N.pl3 201  ARG201      0.1354
    199  N          8.0830   22.6630   -5.6470 N.3   203  TRP203     -0.1241
    200  CA         9.4630   23.0610   -5.8730 C.3   203  TRP203      0.1605
    201  C          9.7630   23.5160   -7.2950 C.2   203  TRP203      0.2264
    202  O          9.1350   23.0770   -8.2640 O.2   203  TRP203     -0.2867
    203  CB        10.4150   21.9370   -5.4720 C.3   203  TRP203      0.0550
    204  CG        10.4360   21.7130   -4.0000 C.ar  203  TRP203      0.0003
    205  CD1        9.7430   20.7670   -3.3060 C.ar  203  TRP203      0.0946
    206  CD2       11.1540   22.4870   -3.0240 C.ar  203  TRP203      0.0152
    207  NE1        9.9840   20.9010   -1.9570 N.ar  203  TRP203     -0.2442
    208  CE2       10.8460   21.9490   -1.7570 C.ar  203  TRP203      0.0810
    209  CE3       12.0270   23.5830   -3.0990 C.ar  203  TRP203      0.0012
    210  CZ2       11.3800   22.4680   -0.5710 C.ar  203  TRP203      0.0191
    211  CZ3       12.5580   24.1000   -1.9170 C.ar  203  TRP203      0.0001
    212  CH2       12.2320   23.5410   -0.6730 C.ar  203  TRP203      0.0015
    213  N          9.1580   17.4040    3.2890 N.3   235  MET235     -0.1245
    214  CA        10.2910   17.9510    4.0240 C.3   235  MET235      0.1570
    215  C         11.2390   16.9410    4.6550 C.2   235  MET235      0.2261
    216  O         12.2590   17.3260    5.2280 O.2   235  MET235     -0.2867
    217  CB         9.8030   18.9200    5.0980 C.3   235  MET235      0.0387
    218  CG         9.5290   20.2990    4.5610 C.3   235  MET235      0.0595
    219  SD        10.9080   20.8210    3.5350 S.3   235  MET235     -0.1393
    220  CE        12.2330   20.8410    4.7480 C.3   235  MET235      0.0692
    221  N         10.9740   20.6890   15.4940 N.3   251  ILE251     -0.1245
    222  CA        10.3670   21.9270   15.9830 C.3   251  ILE251      0.1561
    223  C          8.8480   21.8820   15.8350 C.2   251  ILE251      0.2260
    224  O          8.1280   22.5640   16.5650 O.2   251  ILE251     -0.2867
    225  CB        10.8980   23.1700   15.2190 C.3   251  ILE251      0.0252
    226  CG1       12.3630   23.4180   15.5870 C.3   251  ILE251      0.0019
    227  CG2       10.0410   24.3990   15.5410 C.3   251  ILE251      0.0019
    228  CD1       12.9590   24.6590   14.9460 C.3   251  ILE251      0.0001
    229  N          5.9930   26.5970   12.6970 N.3   254  ARG254     -0.1245
    230  CA         6.4810   27.9560   12.9100 C.3   254  ARG254      0.1563
    231  C          5.3020   28.9210   12.7110 C.2   254  ARG254      0.2260
    232  O          4.2560   28.5300   12.1890 O.2   254  ARG254     -0.2867
    233  CB         7.6100   28.2580   11.9150 C.3   254  ARG254      0.0307
    234  CG         8.4770   27.0380   11.5810 C.3   254  ARG254      0.0489
    235  CD         9.6720   27.3980   10.7190 C.3   254  ARG254      0.2205
    236  NE         9.3110   28.3200    9.6470 N.pl3 254  ARG254     -0.0865
    237  CZ        10.1610   28.7740    8.7290 C.cat 254  ARG254      0.5346
    238  NH1       11.4290   28.3860    8.7470 N.pl3 254  ARG254      0.1354
    239  NH2        9.7470   29.6330    7.8030 N.pl3 254  ARG254      0.1354
    240  N          2.5070   29.0940    9.4160 N.3   257  GLU257     -0.1245
    241  CA         2.9060   28.1090    8.4160 C.3   257  GLU257      0.1567
    242  C          1.8140   27.0710    8.1680 C.2   257  GLU257      0.2260
    243  O          1.0610   26.7260    9.0730 O.2   257  GLU257     -0.2867
    244  CB         4.1950   27.4160    8.8790 C.3   257  GLU257      0.0388
    245  CG         4.9680   26.6620    7.7950 C.3   257  GLU257      0.1160
    246  CD         6.2950   26.0870    8.3020 C.2   257  GLU257      0.3649
    247  OE1        7.1810   26.8680    8.7220 O.co2 257  GLU257     -0.2457
    248  OE2        6.4510   24.8470    8.2800 O.co2 257  GLU257     -0.2457
@<TRIPOS>BOND
     1    72    70   ar
     2    72    73   ar
     3    70    68   ar
     4    74    73    1
     5    73    71   ar
     6    68    67    1
     7    68    69   ar
     8    67    64    1
     9    63    64    1
    10   202   201    2
    11    71    69   ar
    12    64    65    1
    13   201   200    1
    14    65    75   am
    15    65    66    2
    16    75    76    1
    17    93    91    1
    18    92    91    1
    19   200   199    1
    20   200   203    1
    21   203   204    1
    22    27    28    1
    23    78    77    2
    24    91    88    1
    25    76    77    1
    26    82    81    2
    27    88    89    1
    28    88    87    1
    29    77    79   am
    30    28    29    1
    31    28    31    1
    32    89    90    2
    33    81    87   am
    34    81    80    1
    35    29    30    2
    36    29    34   am
    37   204   205   ar
    38   204   206   ar
    39    34    35    1
    40    79    80    1
    41    35    38    1
    42    35    36    1
    43    38    39    1
    44   205   207   ar
    45    31    33    1
    46    31    32    1
    47   209   206   ar
    48   209   211   ar
    49    80    83    1
    50   206   208   ar
    51    41    39   ar
    52   191   190    2
    53    39    40   ar
    54    99    98    1
    55    95    98    1
    56    95    94    1
    57    95    96    1
    58   190   189    1
    59    36    37    2
    60    36    42   am
    61    83    84    1
    62   207   208   ar
    63   211   212   ar
    64   208   210   ar
    65   100    96   am
    66   100   101    1
    67    86    84   am
    68    42    43    1
    69    96    97    2
    70   104   101    1
    71   104   105    1
    72    84    85    2
    73    62    61    1
    74     8     7    1
    75     8     9    1
    76   106   107    1
    77   106   105    1
    78   109   108    1
    79   107   108    2
    80   108   110    1
    81   189   192    1
    82   189   188    1
    83   212   210   ar
    84     7     6    1
    85   101   102    1
    86    44    43    1
    87    44    45    2
    88   192   193    1
    89    43    46    1
    90   120   119    1
    91    61    59   ar
    92    61    60   ar
    93    46    47    1
    94    59    57   ar
    95     6     5    1
    96   102   103    2
    97   102   111   am
    98     5     2    1
    99   119   116    1
   100    60    58   ar
   101   194   193    1
   102   194   195    1
   103    47    48    1
   104   111   112    1
   105    48    49    1
   106    54    53    2
   107    57    56   ar
   108    50    49    1
   109   126   125    1
   110     1     2    1
   111     2     3    1
   112   115   116    1
   113   115   113   am
   114    58    56   ar
   115   116   117    1
   116   195   196    2
   117    56    55    1
   118    53    52    1
   119   121   117   am
   120   121   122    1
   121   112   113    1
   122   113   114    2
   123   123   122    1
   124   123   124    2
   125   197   196    1
   126   117   118    2
   127   213   214    1
   128     4     3    2
   129     3    10   am
   130   196   198    1
   131   125   122    1
   132   125   127    1
   133   219   218    1
   134   219   220    1
   135   183   182    2
   136   214   215    1
   137   214   217    1
   138    52    55    1
   139    52    51    1
   140   182   181    1
   141   128   129    1
   142    10    11    1
   143   218   217    1
   144   215   216    2
   145   143   144    1
   146   143   140    1
   147    26    24    1
   148   141   142    2
   149   141   140    1
   150   146   144   ar
   151   146   148   ar
   152   139   140    1
   153   139   130   am
   154   144   145   ar
   155   181   184    1
   156   181   180    1
   157    11    14    1
   158    11    12    1
   159   129   130    1
   160   129   132    1
   161   148   149   ar
   162   130   131    2
   163   185   184    1
   164   185   186    1
   165    20    12   am
   166    20    21    1
   167   145   147   ar
   168   132   133    1
   169    14    15    1
   170    12    13    2
   171   149   147   ar
   172    24    21    1
   173    24    25    1
   174    21    22    1
   175   186   187    1
   176    15    17   ar
   177    15    16   ar
   178   134   133   ar
   179   134   136   ar
   180    17    19   ar
   181   133   135   ar
   182   245   246    1
   183   245   244    1
   184   239   237    1
   185   242   241    1
   186   242   243    2
   187   248   246   ar
   188   246   247   ar
   189    22    23    2
   190   241   244    1
   191   241   240    1
   192   136   138   ar
   193    16    18   ar
   194    19    18   ar
   195   237   238    1
   196   237   236    2
   197   135   137   ar
   198   157   155    1
   199   172   170    1
   200   156   154    1
   201   178   177    1
   202   236   235    1
   203   138   137   ar
   204   171   169    1
   205   155   154    1
   206   154   151    1
   207   170   169    1
   208   235   234    1
   209   161   160    2
   210   177   179    1
   211   177   174    1
   212   169   166    1
   213   173   174    1
   214   173   167   am
   215   166   167    1
   216   166   165    1
   217   234   233    1
   218   153   152    2
   219   175   174    1
   220   175   176    2
   221   167   168    2
   222   233   230    1
   223   160   165   am
   224   160   159    1
   225   151   152    1
   226   151   150    1
   227   152   158   am
   228   232   231    2
   229   229   230    1
   230   231   230    1
   231   158   159    1
   232   158   164    1
   233   159   162    1
   234   164   163    1
   235   162   163    1
   236   228   226    1
   237   225   227    1
   238   225   226    1
   239   225   222    1
   240   221   222    1
   241   223   222    1
   242   223   224    2
