@<TRIPOS>MOLECULE
tmp/2gn7A00.pdb
 74 71 0 0 0
SMALL
GASTEIGER

@<TRIPOS>ATOM
      1  N         -0.4740    8.1670   11.6140 N.3    82  ASN82      -0.1240
      2  CA        -1.1310    7.9650   10.3300 C.3    82  ASN82       0.1653
      3  C         -0.2520    8.3960    9.1630 C.2    82  ASN82       0.2266
      4  O         -0.7510    8.9110    8.1610 O.2    82  ASN82      -0.2867
      5  CB        -2.4600    8.7300   10.2640 C.3    82  ASN82       0.1155
      6  CG        -2.2770   10.2400   10.2000 C.2    82  ASN82       0.2627
      7  OD1       -3.2440   10.9740    9.9900 O.2    82  ASN82      -0.2716
      8  ND2       -1.0450   10.7110   10.3870 N.am   82  ASN82      -0.0877
      9  N          1.7330    8.9290    5.8380 N.3    84  ALA84      -0.1231
     10  CA         1.2840    8.6420    4.4760 C.3    84  ALA84       0.1694
     11  C          2.3810    9.1490    3.5340 C.2    84  ALA84       0.2592
     12  O          3.3520    9.7380    4.0030 O.2    84  ALA84      -0.2718
     13  CB        -0.0470    9.3580    4.2070 C.3    84  ALA84       0.0304
     14  N          2.2620    8.9310    2.2220 N.am   85  ASP85      -0.1974
     15  CA         1.1480    8.2320    1.5830 C.3    85  ASP85       0.1709
     16  C          1.5740    6.8540    1.0540 C.2    85  ASP85       0.2293
     17  O          0.7350    5.9780    0.8250 O.2    85  ASP85      -0.2864
     18  CB         0.6040    9.0920    0.4390 C.3    85  ASP85       0.1436
     19  CG        -0.1190   10.3350    0.9330 C.2    85  ASP85       0.3671
     20  OD1       -1.2800   10.2050    1.3720 O.co2  85  ASP85      -0.2456
     21  OD2        0.4750   11.4380    0.8980 O.co2  85  ASP85      -0.2456
     22  N          0.6050   14.2700   -2.7420 N.3   104  GLY104     -0.1210
     23  CA        -0.3750   13.4560   -2.0400 C.3   104  GLY104      0.1956
     24  C         -0.3310   11.9700   -2.3420 C.2   104  GLY104      0.2612
     25  O          0.7390   11.3890   -2.5050 O.2   104  GLY104     -0.2717
     26  N         -1.5060   11.3550   -2.4160 N.am  105  GLY105     -0.1956
     27  CA        -1.5880    9.9320   -2.6910 C.3   105  GLY105      0.1869
     28  C         -1.2850    9.5530   -4.1290 C.2   105  GLY105      0.2309
     29  O         -1.3670    8.3800   -4.4930 O.2   105  GLY105     -0.2863
     30  N         -1.5890    5.6650    3.3240 N.3   123  PHE123     -0.1227
     31  CA        -2.5570    6.7260    3.6070 C.3   123  PHE123      0.1736
     32  C         -4.0210    6.3190    3.7390 C.2   123  PHE123      0.2595
     33  O         -4.3860    5.1430    3.5750 O.2   123  PHE123     -0.2718
     34  CB        -2.4340    7.8750    2.5790 C.3   123  PHE123      0.0547
     35  CG        -2.7100    7.4850    1.1380 C.ar  123  PHE123     -0.0202
     36  CD1       -2.0070    6.4550    0.5220 C.ar  123  PHE123     -0.0042
     37  CD2       -3.6250    8.2090    0.3760 C.ar  123  PHE123     -0.0042
     38  CE1       -2.2080    6.1610   -0.8360 C.ar  123  PHE123     -0.0003
     39  CE2       -3.8280    7.9230   -0.9830 C.ar  123  PHE123     -0.0003
     40  CZ        -3.1160    6.9000   -1.5890 C.ar  123  PHE123     -0.0000
     41  N         -4.8510    7.3130    4.0400 N.am  124  TYR124     -0.1976
     42  CA        -6.2820    7.1010    4.2250 C.3   124  TYR124      0.1639
     43  C         -6.9750    6.4910    3.0180 C.2   124  TYR124      0.2290
     44  O         -8.1860    6.6390    2.8650 O.2   124  TYR124     -0.2864
     45  CB        -7.0210    8.4390    4.5500 C.3   124  TYR124      0.0560
     46  CG        -6.7260    9.0450    5.9020 C.ar  124  TYR124     -0.0198
     47  CD1       -6.7380    8.3050    7.0660 C.ar  124  TYR124     -0.0009
     48  CD2       -6.4930   10.4060    5.9910 C.ar  124  TYR124     -0.0009
     49  CE1       -6.4820    8.8990    8.2880 C.ar  124  TYR124      0.0417
     50  CE2       -6.2850   11.0200    7.2030 C.ar  124  TYR124      0.0417
     51  CZ        -6.2670   10.2600    8.3590 C.ar  124  TYR124      0.1957
     52  OH        -6.0660   10.9690    9.5470 O.3   124  TYR124     -0.2866
     53  N          2.0960   14.2730    1.5070 N.3   205  GLY205     -0.1210
     54  CA         1.5770   15.6260    1.4580 C.3   205  GLY205      0.1956
     55  C          1.5510   16.1950    2.8620 C.2   205  GLY205      0.2612
     56  O          2.5830   16.6170    3.3890 O.2   205  GLY205     -0.2717
     57  N          0.3740   16.1950    3.4790 N.am  206  GLU206     -0.1965
     58  CA         0.2380   16.7120    4.8310 C.3   206  GLU206      0.1733
     59  C          0.6140   15.6770    5.8850 C.2   206  GLU206      0.2616
     60  O          0.9960   16.0280    6.9980 O.2   206  GLU206     -0.2715
     61  CB        -1.1780   17.2470    5.0450 C.3   206  GLU206      0.0429
     62  CG        -1.4700   18.4560    4.1670 C.3   206  GLU206      0.1163
     63  CD        -0.3320   19.4660    4.2120 C.2   206  GLU206      0.3649
     64  OE1        0.0410   19.8950    5.3210 O.co2 206  GLU206     -0.2457
     65  OE2        0.1970   19.8270    3.1390 O.co2 206  GLU206     -0.2457
     66  N          0.4970   14.4020    5.5320 N.am  207  GLN207     -0.1977
     67  CA         0.8980   13.3190    6.4270 C.3   207  GLN207      0.1601
     68  C          2.1080   12.7180    5.7460 C.2   207  GLN207      0.2287
     69  O          2.0740   12.4090    4.5580 O.2   207  GLN207     -0.2864
     70  CB        -0.2040   12.2700    6.5890 C.3   207  GLN207      0.0394
     71  CG        -1.3750   12.7720    7.3940 C.3   207  GLN207      0.0908
     72  CD        -2.0160   13.9820    6.7560 C.2   207  GLN207      0.2608
     73  OE1       -2.6540   13.8790    5.7070 O.2   207  GLN207     -0.2717
     74  NE2       -1.8310   15.1470    7.3730 N.am  207  GLN207     -0.0878
@<TRIPOS>BOND
     1    29    28    2
     2    28    27    1
     3    22    23    1
     4    27    26    1
     5    25    24    2
     6    26    24   am
     7    24    23    1
     8    40    39   ar
     9    40    38   ar
    10    39    37   ar
    11    38    36   ar
    12    37    35   ar
    13    18    19    1
    14    18    15    1
    15    36    35   ar
    16    17    16    2
    17    21    19   ar
    18    19    20   ar
    19    16    15    1
    20    35    34    1
    21    54    53    1
    22    54    55    1
    23    15    14    1
    24    14    11   am
    25    34    31    1
    26    55    56    2
    27    55    57   am
    28    44    43    2
    29    43    42    1
    30    65    63   ar
    31    30    31    1
    32    57    58    1
    33    11    12    2
    34    11    10    1
    35    33    32    2
    36    31    32    1
    37    32    41   am
    38    41    42    1
    39    62    63    1
    40    62    61    1
    41    13    10    1
    42    63    64   ar
    43    42    45    1
    44    10     9    1
    45    45    46    1
    46    69    68    2
    47    58    61    1
    48    58    59    1
    49    66    59   am
    50    66    67    1
    51    73    72    2
    52    68    67    1
    53    59    60    2
    54    46    48   ar
    55    46    47   ar
    56    48    50   ar
    57    67    70    1
    58    70    71    1
    59    72    74   am
    60    72    71    1
    61    47    49   ar
    62    50    51   ar
    63     4     3    2
    64    49    51   ar
    65    51    52    1
    66     3     2    1
    67     7     6    2
    68     6     5    1
    69     6     8   am
    70     5     2    1
    71     2     1    1
