@<TRIPOS>MOLECULE
tmp/2gn8B01.pdb
 171 161 0 0 0
SMALL
GASTEIGER

@<TRIPOS>ATOM
      1  N         30.1450   27.7660    0.8290 N.3    87  LYS87      -0.1245
      2  CA        29.2070   26.6400    0.9140 C.3    87  LYS87       0.1561
      3  C         28.3150   26.3740   -0.2950 C.2    87  LYS87       0.2260
      4  O         27.5950   25.3790   -0.3220 O.2    87  LYS87      -0.2867
      5  CB        28.3050   26.8240    2.1370 C.3    87  LYS87       0.0271
      6  CG        27.3750   28.0310    1.9900 C.3    87  LYS87       0.0035
      7  CD        26.3240   28.1270    3.0840 C.3    87  LYS87       0.0206
      8  CE        25.3180   29.2300    2.7310 C.3    87  LYS87       0.1093
      9  NZ        24.2220   29.3900    3.7300 N.3    87  LYS87      -0.1314
     10  N         27.3250   24.8000   -3.2640 N.3    89  VAL89      -0.1245
     11  CA        27.7710   23.5950   -3.9590 C.3    89  VAL89       0.1561
     12  C         28.1370   23.7840   -5.4250 C.2    89  VAL89       0.2260
     13  O         29.2500   23.4510   -5.8310 O.2    89  VAL89      -0.2867
     14  CB        26.7430   22.4420   -3.8200 C.3    89  VAL89       0.0252
     15  CG1       27.1300   21.2760   -4.7210 C.3    89  VAL89       0.0019
     16  CG2       26.7090   21.9670   -2.3820 C.3    89  VAL89       0.0019
     17  N         26.4040   17.2820    4.3450 N.3   129  LYS129     -0.1245
     18  CA        26.9750   17.0750    3.0240 C.3   129  LYS129      0.1561
     19  C         28.4000   16.5220    3.1280 C.2   129  LYS129      0.2260
     20  O         28.9860   16.1180    2.1260 O.2   129  LYS129     -0.2867
     21  CB        26.9670   18.3910    2.2380 C.3   129  LYS129      0.0271
     22  CG        25.5670   18.7990    1.7530 C.3   129  LYS129      0.0035
     23  CD        25.5420   20.1860    1.1330 C.3   129  LYS129      0.0206
     24  CE        24.2210   20.4550    0.4100 C.3   129  LYS129      0.1093
     25  NZ        23.0270   20.1040    1.2250 N.3   129  LYS129     -0.1314
     26  N         20.3320   21.3960    6.3410 N.3   169  ASN169     -0.1240
     27  CA        19.8210   22.6440    5.7910 C.3   169  ASN169      0.1653
     28  C         19.1680   23.5250    6.8450 C.2   169  ASN169      0.2266
     29  O         18.4520   23.0440    7.7220 O.2   169  ASN169     -0.2867
     30  CB        18.8150   22.3400    4.6730 C.3   169  ASN169      0.1155
     31  CG        19.4800   21.7980    3.4160 C.2   169  ASN169      0.2627
     32  OD1       20.0610   22.5480    2.6330 O.2   169  ASN169     -0.2716
     33  ND2       19.4060   20.4900    3.2250 N.am  169  ASN169     -0.0877
     34  N         20.9860   32.0130    1.6510 N.3   175  GLY175     -0.1210
     35  CA        20.8520   31.7310    0.2340 C.3   175  GLY175      0.1956
     36  C         19.9820   30.5190   -0.0410 C.2   175  GLY175      0.2613
     37  O         19.8600   30.0800   -1.1840 O.2   175  GLY175     -0.2717
     38  N         19.3730   29.9800    1.0120 N.am  176  SER176     -0.1938
     39  CA        18.5110   28.8060    0.9020 C.3   176  SER176      0.2055
     40  C         17.4160   28.9720   -0.1460 C.2   176  SER176      0.2642
     41  O         17.3820   29.9640   -0.8740 O.2   176  SER176     -0.2714
     42  CB        17.8700   28.5040    2.2580 C.3   176  SER176      0.2130
     43  OG        16.9850   27.4010    2.1760 O.3   176  SER176     -0.2179
     44  N         16.5220   27.9900   -0.2150 N.am  177  VAL177     -0.1977
     45  CA        15.4150   28.0170   -1.1650 C.3   177  VAL177      0.1596
     46  C         14.2030   28.7420   -0.6010 C.2   177  VAL177      0.2287
     47  O         13.4790   29.4170   -1.3320 O.2   177  VAL177     -0.2864
     48  CB        14.9750   26.5950   -1.5620 C.3   177  VAL177      0.0276
     49  CG1       16.0570   25.9340   -2.3720 C.3   177  VAL177      0.0022
     50  CG2       14.6610   25.7760   -0.3160 C.3   177  VAL177      0.0022
     51  N         14.1930   32.0660   -1.3170 N.3   180  PHE180     -0.1227
     52  CA        14.1430   32.1490   -2.7710 C.3   180  PHE180      0.1736
     53  C         12.6930   32.0190   -3.2370 C.2   180  PHE180      0.2595
     54  O         12.2390   32.7660   -4.1040 O.2   180  PHE180     -0.2718
     55  CB        14.9960   31.0320   -3.3830 C.3   180  PHE180      0.0547
     56  CG        15.0060   31.0260   -4.8840 C.ar  180  PHE180     -0.0202
     57  CD1       15.5110   32.1100   -5.5960 C.ar  180  PHE180     -0.0042
     58  CD2       14.5090   29.9330   -5.5890 C.ar  180  PHE180     -0.0042
     59  CE1       15.5210   32.1070   -6.9890 C.ar  180  PHE180     -0.0003
     60  CE2       14.5140   29.9180   -6.9820 C.ar  180  PHE180     -0.0003
     61  CZ        15.0210   31.0080   -7.6840 C.ar  180  PHE180     -0.0000
     62  N         11.9740   31.0670   -2.6470 N.am  181  PHE181     -0.1976
     63  CA        10.5740   30.8220   -2.9800 C.3   181  PHE181      0.1639
     64  C          9.6840   32.0080   -2.6190 C.2   181  PHE181      0.2290
     65  O          8.6900   32.2760   -3.2960 O.2   181  PHE181     -0.2864
     66  CB        10.0700   29.5770   -2.2460 C.3   181  PHE181      0.0560
     67  CG        10.4640   28.2800   -2.8950 C.ar  181  PHE181     -0.0200
     68  CD1       11.7580   28.0790   -3.3620 C.ar  181  PHE181     -0.0042
     69  CD2        9.5410   27.2450   -3.0130 C.ar  181  PHE181     -0.0042
     70  CE1       12.1280   26.8640   -3.9380 C.ar  181  PHE181     -0.0003
     71  CE2        9.9000   26.0280   -3.5850 C.ar  181  PHE181     -0.0003
     72  CZ        11.1960   25.8370   -4.0490 C.ar  181  PHE181     -0.0000
     73  N         11.0600   26.3210   -9.4660 N.3   193  PRO193     -0.2102
     74  CA        12.0710   25.3110   -9.7970 C.3   193  PRO193      0.1504
     75  C         12.1440   24.1400   -8.8120 C.2   193  PRO193      0.2576
     76  O         12.4110   24.3290   -7.6240 O.2   193  PRO193     -0.2718
     77  CB        13.3620   26.1240   -9.8290 C.3   193  PRO193      0.0282
     78  CG        13.1190   27.1530   -8.7730 C.3   193  PRO193      0.0208
     79  CD        11.7020   27.5890   -9.0720 C.3   193  PRO193      0.0893
     80  N         11.9050   22.9330   -9.3210 N.am  194  ILE194     -0.1966
     81  CA        11.9500   21.7130   -8.5160 C.3   194  ILE194      0.1727
     82  C         12.9800   20.7600   -9.1190 C.2   194  ILE194      0.2616
     83  O         13.2570   20.8180  -10.3170 O.2   194  ILE194     -0.2715
     84  CB        10.5700   21.0110   -8.4840 C.3   194  ILE194      0.0290
     85  CG1        9.5360   21.9260   -7.8240 C.3   194  ILE194      0.0022
     86  CG2       10.6660   19.6880   -7.7340 C.3   194  ILE194      0.0023
     87  CD1        9.8620   22.2970   -6.3900 C.3   194  ILE194      0.0001
     88  N         13.5450   19.8820   -8.2940 N.am  195  THR195     -0.1951
     89  CA        14.5510   18.9360   -8.7670 C.3   195  THR195      0.1897
     90  C         14.0340   17.5050   -8.9300 C.2   195  THR195      0.2313
     91  O         13.9720   16.9880  -10.0450 O.2   195  THR195     -0.2863
     92  CB        15.7760   18.9170   -7.8260 C.3   195  THR195      0.1794
     93  OG1       15.3690   18.5120   -6.5130 O.3   195  THR195     -0.2208
     94  CG2       16.4070   20.3010   -7.7510 C.3   195  THR195      0.0378
     95  N         12.9400   13.5770   -3.3340 N.3   199  MET199     -0.1245
     96  CA        13.9620   14.3690   -2.6530 C.3   199  MET199      0.1570
     97  C         13.7090   14.4450   -1.1500 C.2   199  MET199      0.2261
     98  O         12.5700   14.3330   -0.6930 O.2   199  MET199     -0.2867
     99  CB        14.0160   15.7850   -3.2310 C.3   199  MET199      0.0387
    100  CG        14.9000   15.9110   -4.4530 C.3   199  MET199      0.0595
    101  SD        16.6200   15.5160   -4.0660 S.3   199  MET199     -0.1393
    102  CE        17.2990   17.1380   -3.8440 C.3   199  MET199      0.0692
    103  N         15.5240   16.2780    2.7080 N.3   201  ARG201     -0.1245
    104  CA        16.5230   17.1050    3.3750 C.3   201  ARG201      0.1563
    105  C         16.1690   17.3100    4.8390 C.2   201  ARG201      0.2260
    106  O         15.0000   17.5010    5.1780 O.2   201  ARG201     -0.2867
    107  CB        16.6080   18.4760    2.7000 C.3   201  ARG201      0.0307
    108  CG        17.2310   18.4740    1.3190 C.3   201  ARG201      0.0489
    109  CD        18.7320   18.3050    1.4030 C.3   201  ARG201      0.2205
    110  NE        19.3620   18.4190    0.0930 N.pl3 201  ARG201     -0.0865
    111  CZ        19.2700   17.5000   -0.8620 C.cat 201  ARG201      0.5346
    112  NH1       18.5740   16.3930   -0.6520 N.pl3 201  ARG201      0.1354
    113  NH2       19.8740   17.6880   -2.0250 N.pl3 201  ARG201      0.1354
    114  N         15.9160   19.3950    8.2390 N.3   203  TRP203     -0.1241
    115  CA        15.6460   20.8080    8.4410 C.3   203  TRP203      0.1605
    116  C         15.7450   21.1860    9.9100 C.2   203  TRP203      0.2264
    117  O         15.2870   20.4600   10.7950 O.2   203  TRP203     -0.2867
    118  CB        14.2660   21.1930    7.8950 C.3   203  TRP203      0.0550
    119  CG        14.1980   21.2330    6.3900 C.ar  203  TRP203      0.0003
    120  CD1       13.7290   20.2540    5.5630 C.ar  203  TRP203      0.0946
    121  CD2       14.6330   22.3030    5.5370 C.ar  203  TRP203      0.0152
    122  NE1       13.8450   20.6460    4.2490 N.ar  203  TRP203     -0.2442
    123  CE2       14.3960   21.8990    4.2050 C.ar  203  TRP203      0.0810
    124  CE3       15.2010   23.5630    5.7700 C.ar  203  TRP203      0.0012
    125  CZ2       14.7080   22.7100    3.1060 C.ar  203  TRP203      0.0191
    126  CZ3       15.5120   24.3710    4.6750 C.ar  203  TRP203      0.0001
    127  CH2       15.2630   23.9390    3.3610 C.ar  203  TRP203      0.0015
    128  N         10.7890   17.6430   -0.4980 N.3   235  MET235     -0.1245
    129  CA        10.6820   18.9050   -1.2220 C.3   235  MET235      0.1570
    130  C          9.2940   19.1470   -1.8080 C.2   235  MET235      0.2261
    131  O          8.9520   20.2750   -2.1660 O.2   235  MET235     -0.2867
    132  CB        11.7340   18.9660   -2.3310 C.3   235  MET235      0.0387
    133  CG        13.1620   19.0370   -1.8140 C.3   235  MET235      0.0595
    134  SD        13.4480   20.4810   -0.7600 S.3   235  MET235     -0.1393
    135  CE        13.0820   19.8000    0.8630 C.3   235  MET235      0.0692
    136  N          7.2910   21.1760    0.6190 N.3   238  LEU238     -0.1245
    137  CA         7.9730   22.4530    0.8090 C.3   238  LEU238      0.1561
    138  C          7.4870   23.5320   -0.1540 C.2   238  LEU238      0.2260
    139  O          7.2380   24.6680    0.2490 O.2   238  LEU238     -0.2867
    140  CB         9.4850   22.2720    0.6470 C.3   238  LEU238      0.0270
    141  CG        10.3410   23.5420    0.6980 C.3   238  LEU238      0.0019
    142  CD1       10.1750   24.2260    2.0430 C.3   238  LEU238      0.0001
    143  CD2       11.7980   23.1840    0.4600 C.3   238  LEU238      0.0001
    144  N         13.1570   21.2220  -12.9150 N.3   251  ILE251     -0.1245
    145  CA        14.4270   21.6850  -13.4680 C.3   251  ILE251      0.1561
    146  C         15.5170   20.6330  -13.2920 C.2   251  ILE251      0.2260
    147  O         15.3630   19.6850  -12.5190 O.2   251  ILE251     -0.2867
    148  CB        14.9040   22.9850  -12.7830 C.3   251  ILE251      0.0252
    149  CG1       15.2230   22.7110  -11.3090 C.3   251  ILE251      0.0019
    150  CG2       13.8380   24.0650  -12.9170 C.3   251  ILE251      0.0019
    151  CD1       15.8480   23.8830  -10.5750 C.3   251  ILE251      0.0001
    152  N         20.9960   20.1830   -9.8110 N.3   254  ARG254     -0.1245
    153  CA        22.2210   20.9720   -9.7050 C.3   254  ARG254      0.1563
    154  C         23.4710   20.0980   -9.7200 C.2   254  ARG254      0.2260
    155  O         23.4180   18.9100   -9.4000 O.2   254  ARG254     -0.2867
    156  CB        22.2280   21.7980   -8.4160 C.3   254  ARG254      0.0307
    157  CG        21.3390   23.0280   -8.4030 C.3   254  ARG254      0.0489
    158  CD        21.6210   23.8210   -7.1360 C.3   254  ARG254      0.2205
    159  NE        20.8270   25.0390   -7.0190 N.pl3 254  ARG254     -0.0865
    160  CZ        20.9640   25.9200   -6.0320 C.cat 254  ARG254      0.5346
    161  NH1       21.8670   25.7170   -5.0800 N.pl3 254  ARG254      0.1354
    162  NH2       20.1970   27.0020   -5.9910 N.pl3 254  ARG254      0.1354
    163  N         24.6520   17.4560   -6.5620 N.3   257  GLU257     -0.1245
    164  CA        23.5920   17.3340   -5.5650 C.3   257  GLU257      0.1567
    165  C         23.1370   15.8950   -5.3250 C.2   257  GLU257      0.2260
    166  O         23.0990   15.0860   -6.2500 O.2   257  GLU257     -0.2867
    167  CB        22.3930   18.1870   -5.9870 C.3   257  GLU257      0.0388
    168  CG        21.1720   18.0380   -5.0940 C.3   257  GLU257      0.1160
    169  CD        20.0030   18.8830   -5.5650 C.2   257  GLU257      0.3649
    170  OE1       20.0980   20.1290   -5.4990 O.co2 257  GLU257     -0.2457
    171  OE2       18.9920   18.2980   -6.0100 O.co2 257  GLU257     -0.2457
@<TRIPOS>BOND
     1   145   146    1
     2   145   144    1
     3   145   148    1
     4   146   147    2
     5   150   148    1
     6   148   149    1
     7   149   151    1
     8    83    82    2
     9    91    90    2
    10    77    74    1
    11    77    78    1
    12   152   153    1
    13    74    73    1
    14    74    75    1
    15   154   153    1
    16   154   155    2
    17   153   156    1
    18    73    79    1
    19    80    75   am
    20    80    81    1
    21    82    81    1
    22    82    88   am
    23    79    78    1
    24    90    89    1
    25    75    76    2
    26    89    88    1
    27    89    92    1
    28    81    84    1
    29    84    85    1
    30    84    86    1
    31   156   157    1
    32   157   158    1
    33    92    94    1
    34    92    93    1
    35    85    87    1
    36    61    59   ar
    37    61    60   ar
    38   158   159    1
    39   159   160    2
    40    59    57   ar
    41    60    58   ar
    42   163   164    1
    43   166   165    2
    44   160   162    1
    45   160   161    1
    46   171   169   ar
    47   167   164    1
    48   167   168    1
    49    13    12    2
    50    57    56   ar
    51    58    56   ar
    52   169   170   ar
    53   169   168    1
    54   164   165    1
    55    12    11    1
    56    56    55    1
    57    15    14    1
    58   100   101    1
    59   100    99    1
    60    54    53    2
    61   101   102    1
    62    72    70   ar
    63    72    71   ar
    64    11    14    1
    65    11    10    1
    66    70    68   ar
    67    14    16    1
    68    71    69   ar
    69    55    52    1
    70    68    67   ar
    71    95    96    1
    72    65    64    2
    73    53    52    1
    74    53    62   am
    75    99    96    1
    76    69    67   ar
    77    63    62    1
    78    63    64    1
    79    63    66    1
    80    67    66    1
    81    52    51    1
    82    96    97    1
    83    49    48    1
    84   132   133    1
    85   132   129    1
    86   131   130    2
    87   113   111    1
    88   133   134    1
    89   130   129    1
    90    48    45    1
    91    48    50    1
    92    47    46    2
    93   129   128    1
    94    37    36    2
    95    45    46    1
    96    45    44    1
    97    97    98    2
    98    41    40    2
    99   111   112    1
   100   111   110    2
   101   134   135    1
   102     4     3    2
   103     3     2    1
   104    44    40   am
   105   138   139    2
   106   138   137    1
   107    40    39    1
   108    36    35    1
   109    36    38   am
   110   110   109    1
   111    35    34    1
   112    24    23    1
   113    24    25    1
   114   143   141    1
   115   136   137    1
   116   140   141    1
   117   140   137    1
   118   141   142    1
   119     1     2    1
   120    39    38    1
   121    39    42    1
   122     2     5    1
   123    23    22    1
   124   108   109    1
   125   108   107    1
   126    22    21    1
   127     6     5    1
   128     6     7    1
   129    20    19    2
   130    43    42    1
   131    21    18    1
   132    32    31    2
   133   107   104    1
   134   103   104    1
   135     8     7    1
   136     8     9    1
   137    18    19    1
   138    18    17    1
   139   125   127   ar
   140   125   123   ar
   141    33    31   am
   142   127   126   ar
   143   104   105    1
   144    31    30    1
   145   123   122   ar
   146   123   121   ar
   147   122   120   ar
   148    30    27    1
   149   126   124   ar
   150   105   106    2
   151   121   124   ar
   152   121   119   ar
   153   120   119   ar
   154    27    26    1
   155    27    28    1
   156   119   118    1
   157    28    29    2
   158   118   115    1
   159   114   115    1
   160   115   116    1
   161   116   117    2
