@<TRIPOS>MOLECULE
tmp/2gnaB00.pdb
 193 187 0 0 0
SMALL
GASTEIGER

@<TRIPOS>ATOM
      1  N         24.8440   58.2400    2.3810 N.3    85  LYS85      -0.1231
      2  CA        26.1690   58.8560    2.4100 C.3    85  LYS85       0.1693
      3  C         27.0660   58.6860    1.1920 C.2    85  LYS85       0.2592
      4  O         28.1520   59.2470    1.1650 O.2    85  LYS85      -0.2718
      5  CB        26.9210   58.3580    3.6400 C.3    85  LYS85       0.0285
      6  CG        27.0600   56.8480    3.6400 C.3    85  LYS85       0.0035
      7  CD        28.0020   56.3420    4.7000 C.3    85  LYS85       0.0206
      8  CE        28.2220   54.8520    4.5120 C.3    85  LYS85       0.1093
      9  NZ        29.1860   54.3080    5.5030 N.3    85  LYS85      -0.1314
     10  N         26.6340   57.9140    0.1990 N.am   86  HIS86      -0.1962
     11  CA        27.4440   57.7180   -1.0000 C.3    86  HIS86       0.1787
     12  C         27.3790   59.0090   -1.8140 C.2    86  HIS86       0.2620
     13  O         26.3850   59.2940   -2.4840 O.2    86  HIS86      -0.2715
     14  CB        26.9020   56.5370   -1.8050 C.3    86  HIS86       0.0785
     15  CG        27.8420   56.0150   -2.8520 C.ar   86  HIS86       0.0821
     16  ND1       28.1780   56.7300   -3.9840 N.ar   86  HIS86      -0.2267
     17  CD2       28.4510   54.8090   -2.9770 C.ar   86  HIS86       0.1154
     18  CE1       28.9430   55.9860   -4.7650 C.ar   86  HIS86       0.1986
     19  NE2       29.1230   54.8150   -4.1770 N.ar   86  HIS86      -0.2212
     20  N         28.4500   59.7880   -1.7410 N.am   87  VAL87      -0.1964
     21  CA        28.5450   61.0670   -2.4300 C.3    87  VAL87       0.1712
     22  C         28.1790   61.0430   -3.9130 C.2    87  VAL87       0.2458
     23  O         27.3710   61.8560   -4.3720 O.2    87  VAL87      -0.2730
     24  CB        29.9650   61.6580   -2.2540 C.3    87  VAL87       0.0289
     25  CG1       30.1150   62.9500   -3.0610 C.3    87  VAL87       0.0023
     26  CG2       30.2250   61.9050   -0.7730 C.3    87  VAL87       0.0023
     27  N         28.7820   60.1310   -4.6910 N.am   88  PRO88      -0.2727
     28  CA        28.4170   60.1230   -6.1060 C.3    88  PRO88       0.1402
     29  C         26.9410   59.8310   -6.3350 C.2    88  PRO88       0.2269
     30  O         26.2720   60.5490   -7.0800 O.2    88  PRO88      -0.2865
     31  CB        29.3420   59.0620   -6.6850 C.3    88  PRO88       0.0296
     32  CG        30.5980   59.2850   -5.8880 C.3    88  PRO88       0.0237
     33  CD        30.0280   59.3710   -4.4740 C.3    88  PRO88       0.0939
     34  N         32.4600   66.1820    5.8130 N.3   127  LYS127     -0.1245
     35  CA        32.0890   66.6590    4.4860 C.3   127  LYS127      0.1561
     36  C         31.0340   67.7540    4.5910 C.2   127  LYS127      0.2260
     37  O         30.6760   68.3830    3.5960 O.2   127  LYS127     -0.2867
     38  CB        31.5710   65.5010    3.6310 C.3   127  LYS127      0.0271
     39  CG        32.6550   64.5250    3.2160 C.3   127  LYS127      0.0035
     40  CD        32.0820   63.2700    2.5990 C.3   127  LYS127      0.0206
     41  CE        33.1570   62.4760    1.8710 C.3   127  LYS127      0.1093
     42  NZ        34.3600   62.2110    2.7090 N.3   127  LYS127     -0.1314
     43  N         36.0130   59.9650    7.6690 N.3   167  ASN167     -0.1225
     44  CA        36.1280   58.5780    7.2290 C.3   167  ASN167      0.1785
     45  C         36.4800   57.6110    8.3450 C.2   167  ASN167      0.2597
     46  O         37.3640   57.8780    9.1590 O.2   167  ASN167     -0.2718
     47  CB        37.2010   58.4580    6.1380 C.3   167  ASN167      0.1169
     48  CG        36.9180   59.3310    4.9260 C.2   167  ASN167      0.2627
     49  OD1       37.6720   59.3160    3.9520 O.2   167  ASN167     -0.2716
     50  ND2       35.8300   60.0960    4.9800 N.am  167  ASN167     -0.0877
     51  N         35.7930   56.4760    8.3620 N.am  168  VAL168     -0.1980
     52  CA        36.0330   55.4440    9.3600 C.3   168  VAL168      0.1595
     53  C         36.8420   54.3200    8.7310 C.2   168  VAL168      0.2287
     54  O         36.4370   53.7430    7.7240 O.2   168  VAL168     -0.2864
     55  CB        34.7060   54.8680    9.9020 C.3   168  VAL168      0.0276
     56  CG1       34.9840   53.6890   10.8150 C.3   168  VAL168      0.0022
     57  CG2       33.9420   55.9490   10.6570 C.3   168  VAL168      0.0022
     58  N         35.7460   50.8380    7.1470 N.3   171  SER171     -0.1202
     59  CA        34.3060   50.9930    6.9200 C.3   171  SER171      0.2020
     60  C         33.7690   50.1630    5.7460 C.2   171  SER171      0.2619
     61  O         34.3430   50.1610    4.6530 O.2   171  SER171     -0.2717
     62  CB        33.9740   52.4730    6.7030 C.3   171  SER171      0.2103
     63  OG        32.5750   52.6890    6.7140 O.3   171  SER171     -0.2182
     64  N         32.6620   49.4640    5.9890 N.am  172  ARG172     -0.1965
     65  CA        32.0270   48.6080    4.9890 C.3   172  ARG172      0.1729
     66  C         32.0290   49.1780    3.5750 C.2   172  ARG172      0.2617
     67  O         31.1460   49.9520    3.2050 O.2   172  ARG172     -0.2715
     68  CB        30.5870   48.3030    5.4050 C.3   172  ARG172      0.0348
     69  CG        29.8210   47.4430    4.4110 C.3   172  ARG172      0.0492
     70  CD        28.4360   47.1110    4.9420 C.3   172  ARG172      0.2205
     71  NE        27.6520   48.3120    5.2240 N.pl3 172  ARG172     -0.0865
     72  CZ        26.4300   48.3010    5.7460 C.cat 172  ARG172      0.5346
     73  NH1       25.8490   47.1480    6.0500 N.pl3 172  ARG172      0.1354
     74  NH2       25.7810   49.4390    5.9540 N.pl3 172  ARG172      0.1354
     75  N         33.0190   48.7800    2.7830 N.am  173  GLY173     -0.1940
     76  CA        33.1020   49.2620    1.4180 C.3   173  GLY173      0.2014
     77  C         33.7500   50.6250    1.3000 C.2   173  GLY173      0.2640
     78  O         33.1550   51.5560    0.7640 O.2   173  GLY173     -0.2714
     79  N         34.9750   50.7430    1.7990 N.am  174  SER174     -0.1935
     80  CA        35.7040   52.0030    1.7440 C.3   174  SER174      0.2055
     81  C         37.0850   51.8190    1.1250 C.2   174  SER174      0.2642
     82  O         37.3820   50.7800    0.5340 O.2   174  SER174     -0.2714
     83  CB        35.8350   52.6040    3.1480 C.3   174  SER174      0.2130
     84  OG        36.4710   51.7060    4.0370 O.3   174  SER174     -0.2179
     85  N         37.9260   52.8360    1.2660 N.am  175  VAL175     -0.1977
     86  CA        39.2700   52.7980    0.7130 C.3   175  VAL175      0.1596
     87  C         40.0630   51.5720    1.1700 C.2   175  VAL175      0.2287
     88  O         40.2570   50.6350    0.3980 O.2   175  VAL175     -0.2864
     89  CB        40.0440   54.0970    1.0680 C.3   175  VAL175      0.0276
     90  CG1       39.9540   54.3710    2.5580 C.3   175  VAL175      0.0022
     91  CG2       41.4940   53.9820    0.6340 C.3   175  VAL175      0.0022
     92  N         40.8180   48.0840   -0.9720 N.3   179  PHE179     -0.1241
     93  CA        42.1890   48.3360   -1.4030 C.3   179  PHE179      0.1605
     94  C         43.0360   47.0990   -1.1410 C.2   179  PHE179      0.2264
     95  O         44.0090   46.8370   -1.8480 O.2   179  PHE179     -0.2867
     96  CB        42.7720   49.5220   -0.6370 C.3   179  PHE179      0.0534
     97  CG        43.1600   50.6780   -1.5100 C.ar  179  PHE179     -0.0203
     98  CD1       42.3230   51.1030   -2.5380 C.ar  179  PHE179     -0.0042
     99  CD2       44.3450   51.3700   -1.2780 C.ar  179  PHE179     -0.0042
    100  CE1       42.6610   52.2010   -3.3210 C.ar  179  PHE179     -0.0003
    101  CE2       44.6910   52.4710   -2.0550 C.ar  179  PHE179     -0.0003
    102  CZ        43.8480   52.8870   -3.0780 C.ar  179  PHE179     -0.0000
    103  N         45.0190   52.2610   -7.5680 N.3   191  PRO191     -0.2102
    104  CA        44.2700   53.4630   -7.9560 C.3   191  PRO191      0.1504
    105  C         44.4160   54.6060   -6.9520 C.2   191  PRO191      0.2576
    106  O         44.0610   54.4680   -5.7830 O.2   191  PRO191     -0.2718
    107  CB        42.8270   52.9640   -8.0340 C.3   191  PRO191      0.0282
    108  CG        42.9790   51.5120   -8.3540 C.3   191  PRO191      0.0208
    109  CD        44.1100   51.1090   -7.4470 C.3   191  PRO191      0.0893
    110  N         44.9330   55.7350   -7.4180 N.am  192  ILE192     -0.1966
    111  CA        45.1170   56.8970   -6.5620 C.3   192  ILE192      0.1727
    112  C         44.6110   58.1530   -7.2670 C.2   192  ILE192      0.2617
    113  O         45.1930   58.6010   -8.2590 O.2   192  ILE192     -0.2715
    114  CB        46.6040   57.0700   -6.1820 C.3   192  ILE192      0.0290
    115  CG1       47.0860   55.8280   -5.4250 C.3   192  ILE192      0.0022
    116  CG2       46.7950   58.3270   -5.3410 C.3   192  ILE192      0.0023
    117  CD1       46.3030   55.5200   -4.1570 C.3   192  ILE192      0.0001
    118  N         43.5210   58.7090   -6.7450 N.am  193  THR193     -0.1937
    119  CA        42.9020   59.9040   -7.3100 C.3   193  THR193      0.2028
    120  C         43.8440   61.1050   -7.3790 C.2   193  THR193      0.2642
    121  O         43.7770   61.8960   -8.3220 O.2   193  THR193     -0.2714
    122  CB        41.6490   60.3060   -6.5080 C.3   193  THR193      0.1808
    123  OG1       42.0000   60.4750   -5.1300 O.3   193  THR193     -0.2208
    124  CG2       40.5760   59.2360   -6.6260 C.3   193  THR193      0.0379
    125  N         44.7130   61.2420   -6.3810 N.am  194  ASP194     -0.1971
    126  CA        45.6610   62.3520   -6.3470 C.3   194  ASP194      0.1709
    127  C         46.7950   62.0730   -5.3610 C.2   194  ASP194      0.2293
    128  O         46.6650   61.2230   -4.4790 O.2   194  ASP194     -0.2864
    129  CB        44.9380   63.6460   -5.9710 C.3   194  ASP194      0.1436
    130  CG        45.8000   64.8720   -6.1700 C.2   194  ASP194      0.3671
    131  OD1       46.7810   65.0430   -5.4130 O.co2 194  ASP194     -0.2456
    132  OD2       45.4970   65.6620   -7.0890 O.co2 194  ASP194     -0.2456
    133  N         46.3990   64.0840   -1.7290 N.3   197  MET197     -0.1245
    134  CA        45.1320   63.7320   -1.0930 C.3   197  MET197      0.1570
    135  C         45.3150   63.2610    0.3550 C.2   197  MET197      0.2261
    136  O         45.9140   62.2150    0.5980 O.2   197  MET197     -0.2867
    137  CB        44.4510   62.6270   -1.9050 C.3   197  MET197      0.0387
    138  CG        42.9660   62.4480   -1.6270 C.3   197  MET197      0.0595
    139  SD        41.9720   63.8020   -2.2820 S.3   197  MET197     -0.1393
    140  CE        41.4340   63.1270   -3.8270 C.3   197  MET197      0.0692
    141  N         43.4140   62.8180    4.4680 N.3   199  ARG199     -0.1245
    142  CA        42.1260   62.5570    5.1150 C.3   199  ARG199      0.1563
    143  C         42.2870   62.2640    6.6060 C.2   199  ARG199      0.2260
    144  O         43.3420   61.8130    7.0460 O.2   199  ARG199     -0.2867
    145  CB        41.4360   61.3620    4.4540 C.3   199  ARG199      0.0307
    146  CG        40.8430   61.6310    3.0860 C.3   199  ARG199      0.0489
    147  CD        39.4860   62.3070    3.1960 C.3   199  ARG199      0.2205
    148  NE        38.8400   62.4790    1.8980 N.pl3 199  ARG199     -0.0865
    149  CZ        39.2350   63.3460    0.9680 C.cat 199  ARG199      0.5346
    150  NH1       40.2810   64.1280    1.1870 N.pl3 199  ARG199      0.1354
    151  NH2       38.5790   63.4360   -0.1820 N.pl3 199  ARG199      0.1354
    152  N         41.5320   60.2230   10.0810 N.3   201  TRP201     -0.1241
    153  CA        41.2820   58.8230   10.3580 C.3   201  TRP201      0.1605
    154  C         40.8720   58.5430   11.7900 C.2   201  TRP201      0.2264
    155  O         41.4470   59.0570   12.7470 O.2   201  TRP201     -0.2867
    156  CB        42.4850   57.9740    9.9520 C.3   201  TRP201      0.0550
    157  CG        42.5190   57.7660    8.4600 C.ar  201  TRP201      0.0003
    158  CD1       43.4200   58.2880    7.5720 C.ar  201  TRP201      0.0946
    159  CD2       41.5710   57.0250    7.6790 C.ar  201  TRP201      0.0152
    160  NE1       43.0910   57.9200    6.2890 N.ar  201  TRP201     -0.2442
    161  CE2       41.9610   57.1440    6.3250 C.ar  201  TRP201      0.0810
    162  CE3       40.4280   56.2720    7.9930 C.ar  201  TRP201      0.0012
    163  CZ2       41.2440   56.5340    5.2800 C.ar  201  TRP201      0.0191
    164  CZ3       39.7160   55.6650    6.9530 C.ar  201  TRP201      0.0001
    165  CH2       40.1300   55.8010    5.6160 C.ar  201  TRP201      0.0015
    166  N         47.1180   60.0070    1.5570 N.3   233  MET233     -0.1245
    167  CA        46.7150   58.7830    0.8760 C.3   233  MET233      0.1570
    168  C         47.9380   58.1670    0.2120 C.2   233  MET233      0.2261
    169  O         47.9210   57.0050   -0.1970 O.2   233  MET233     -0.2867
    170  CB        45.6330   59.0710   -0.1700 C.3   233  MET233      0.0387
    171  CG        44.2800   59.4880    0.4050 C.3   233  MET233      0.0595
    172  SD        43.5520   58.2610    1.5190 S.3   233  MET233     -0.1393
    173  CE        43.2960   56.8860    0.3930 C.3   233  MET233      0.0692
    174  N         37.2500   62.3120   -8.1280 N.3   252  ARG252     -0.1245
    175  CA        35.8840   61.8080   -8.2630 C.3   252  ARG252      0.1563
    176  C         34.9130   62.9870   -8.3900 C.2   252  ARG252      0.2260
    177  O         35.3000   64.1410   -8.1930 O.2   252  ARG252     -0.2867
    178  CB        35.5190   60.9650   -7.0390 C.3   252  ARG252      0.0307
    179  CG        36.5760   59.9410   -6.6360 C.3   252  ARG252      0.0489
    180  CD        36.6060   58.7370   -7.5500 C.3   252  ARG252      0.2205
    181  NE        37.6270   57.7770   -7.1340 N.pl3 252  ARG252     -0.0865
    182  CZ        37.7470   56.5500   -7.6330 C.cat 252  ARG252      0.5346
    183  NH1       36.9060   56.1250   -8.5670 N.pl3 252  ARG252      0.1354
    184  NH2       38.7140   55.7460   -7.2080 N.pl3 252  ARG252      0.1354
    185  N         34.7670   65.2940   -4.8470 N.3   255  GLU255     -0.1245
    186  CA        35.8120   65.1830   -3.8350 C.3   255  GLU255      0.1567
    187  C         36.5680   66.4790   -3.6000 C.2   255  GLU255      0.2260
    188  O         36.5740   67.3730   -4.4410 O.2   255  GLU255     -0.2867
    189  CB        36.8440   64.1260   -4.2250 C.3   255  GLU255      0.0388
    190  CG        36.3610   62.6950   -4.2430 C.3   255  GLU255      0.1160
    191  CD        37.5100   61.7150   -4.4120 C.2   255  GLU255      0.3649
    192  OE1       38.3880   61.9820   -5.2610 O.co2 255  GLU255     -0.2457
    193  OE2       37.5310   60.6780   -3.7100 O.co2 255  GLU255     -0.2457
@<TRIPOS>BOND
     1   183   182    1
     2   176   175    1
     3   176   177    2
     4   108   107    1
     5   108   109    1
     6   121   120    2
     7   175   174    1
     8   175   178    1
     9   113   112    2
    10   107   104    1
    11   104   103    1
    12   104   105    1
    13   182   184    1
    14   182   181    2
    15   103   109    1
    16   180   181    1
    17   180   179    1
    18   110   105   am
    19   110   111    1
    20   120   119    1
    21   120   125   am
    22   119   118    1
    23   119   122    1
    24   112   118   am
    25   112   111    1
    26   132   130   ar
    27    30    29    2
    28   178   179    1
    29   105   106    2
    30    31    28    1
    31    31    32    1
    32   124   122    1
    33   111   114    1
    34   122   123    1
    35   125   126    1
    36   126   129    1
    37   126   127    1
    38    29    28    1
    39   114   115    1
    40   114   116    1
    41   130   129    1
    42   130   131   ar
    43    28    27    1
    44    32    33    1
    45   115   117    1
    46   127   128    2
    47   192   191   ar
    48   185   186    1
    49    18    19   ar
    50    18    16   ar
    51    27    33    1
    52    27    22   am
    53   188   187    2
    54   191   190    1
    55   191   193   ar
    56    23    22    2
    57   190   189    1
    58   189   186    1
    59    19    17   ar
    60    16    15   ar
    61    22    21    1
    62   186   187    1
    63   140   139    1
    64   100   102   ar
    65   100    98   ar
    66   102   101   ar
    67    25    24    1
    68    17    15   ar
    69    15    14    1
    70    98    97   ar
    71    13    12    2
    72    21    24    1
    73    21    20    1
    74   139   138    1
    75    24    26    1
    76   101    99   ar
    77   137   138    1
    78   137   134    1
    79    95    94    2
    80    12    20   am
    81    12    11    1
    82    14    11    1
    83   133   134    1
    84    97    99   ar
    85    97    96    1
    86    93    94    1
    87    93    92    1
    88    93    96    1
    89   134   135    1
    90    11    10    1
    91   169   168    2
    92   151   149    1
    93   170   171    1
    94   170   167    1
    95    10     3   am
    96   168   167    1
    97   135   136    2
    98   173   172    1
    99    88    87    2
   100   171   172    1
   101    82    81    2
   102    91    89    1
   103    86    89    1
   104    86    87    1
   105    86    85    1
   106    78    77    2
   107   167   166    1
   108   149   150    1
   109   149   148    2
   110    89    90    1
   111    81    85   am
   112    81    80    1
   113     4     3    2
   114     3     2    1
   115    77    76    1
   116    77    79   am
   117    76    75    1
   118    80    79    1
   119    80    83    1
   120    41    40    1
   121    41    42    1
   122   148   147    1
   123     1     2    1
   124     2     5    1
   125    40    39    1
   126    75    66   am
   127   146   147    1
   128   146   145    1
   129    83    84    1
   130    67    66    2
   131    39    38    1
   132    66    65    1
   133    37    36    2
   134    38    35    1
   135     5     6    1
   136     6     7    1
   137    49    48    2
   138    69    70    1
   139    69    68    1
   140   145   142    1
   141   141   142    1
   142    35    36    1
   143    35    34    1
   144     8     7    1
   145     8     9    1
   146    61    60    2
   147    48    50   am
   148    48    47    1
   149    70    71    1
   150    65    68    1
   151    65    64    1
   152   142   143    1
   153    71    72    2
   154   163   165   ar
   155   163   161   ar
   156   165   164   ar
   157    72    74    1
   158    72    73    1
   159    60    64   am
   160    60    59    1
   161    47    44    1
   162   160   161   ar
   163   160   158   ar
   164   161   159   ar
   165   143   144    2
   166    62    63    1
   167    62    59    1
   168    59    58    1
   169   164   162   ar
   170    44    43    1
   171    44    45    1
   172   158   157   ar
   173   159   162   ar
   174   159   157   ar
   175    54    53    2
   176    45    51   am
   177    45    46    2
   178    51    52    1
   179   157   156    1
   180    53    52    1
   181    52    55    1
   182    55    57    1
   183    55    56    1
   184   156   153    1
   185   152   153    1
   186   153   154    1
   187   154   155    2
