@<TRIPOS>MOLECULE
tmp/2gniA00.pdb
 157 148 0 0 0
SMALL
GASTEIGER

@<TRIPOS>ATOM
      1  N          9.0340   15.4550    8.5070 N.3    39  ILE39      -0.1231
      2  CA         8.8460   14.0800    8.9870 C.3    39  ILE39       0.1692
      3  C          9.7510   13.0200    8.2990 C.2    39  ILE39       0.2593
      4  O          9.6890   11.8290    8.6340 O.2    39  ILE39      -0.2718
      5  CB         7.3890   13.6760    8.8370 C.3    39  ILE39       0.0266
      6  CG1        6.9230   13.9040    7.3980 C.3    39  ILE39       0.0019
      7  CG2        6.5390   14.4310    9.8790 C.3    39  ILE39       0.0020
      8  CD1        5.6380   13.1300    7.0090 C.3    39  ILE39       0.0001
      9  N         10.5740   13.4340    7.3550 N.am   40  GLY40      -0.1942
     10  CA        11.4900   12.5100    6.7390 C.3    40  GLY40       0.2014
     11  C         12.4090   13.1550    5.7190 C.2    40  GLY40       0.2640
     12  O         12.2310   14.3050    5.3070 O.2    40  GLY40      -0.2714
     13  N         13.4080   12.3680    5.3320 N.am   41  THR41      -0.1936
     14  CA        14.2690   12.6060    4.1610 C.3    41  THR41       0.2028
     15  C         14.2520   11.3410    3.2690 C.2    41  THR41       0.2642
     16  O         14.2140   10.2170    3.7810 O.2    41  THR41      -0.2714
     17  CB        15.6610   12.9340    4.6500 C.3    41  THR41       0.1808
     18  OG1       16.0480   11.9660    5.6210 O.3    41  THR41      -0.2208
     19  CG2       15.6580   14.2670    5.4740 C.3    41  THR41       0.0379
     20  N         14.2180   11.5200    1.9470 N.am   42  GLY42      -0.1954
     21  CA        14.1180   10.4030    1.0050 C.3    42  GLY42       0.1869
     22  C         15.4780   10.1190    0.3700 C.2    42  GLY42       0.2309
     23  O         16.5590   10.4340    0.9620 O.2    42  GLY42      -0.2863
     24  N         10.7100   15.6980    3.3370 N.3    47  VAL47      -0.1245
     25  CA         9.2830   15.5650    3.3350 C.3    47  VAL47       0.1561
     26  C          8.7250   16.2240    4.5810 C.2    47  VAL47       0.2260
     27  O          9.2040   15.9900    5.6850 O.2    47  VAL47      -0.2867
     28  CB         8.8520   14.1080    3.1990 C.3    47  VAL47       0.0252
     29  CG1        7.3180   13.9970    3.2630 C.3    47  VAL47       0.0019
     30  CG2        9.3730   13.5150    1.8660 C.3    47  VAL47       0.0019
     31  N          1.6930   14.9550    2.9130 N.3    60  ALA60      -0.1245
     32  CA         3.1500   14.8960    3.0170 C.3    60  ALA60       0.1562
     33  C          3.6800   15.4920    1.7450 C.2    60  ALA60       0.2260
     34  O          3.4700   14.9400    0.6850 O.2    60  ALA60      -0.2867
     35  CB         3.6350   13.4890    3.1520 C.3    60  ALA60       0.0290
     36  N          6.9060   16.6630   -0.4730 N.3    62  LYS62      -0.1245
     37  CA         8.3060   16.4570   -0.7320 C.3    62  LYS62       0.1561
     38  C          8.7980   17.6630   -1.4730 C.2    62  LYS62       0.2260
     39  O          8.2360   18.0420   -2.4840 O.2    62  LYS62      -0.2867
     40  CB         8.4890   15.1860   -1.5480 C.3    62  LYS62       0.0271
     41  CG         9.8940   14.9160   -2.0250 C.3    62  LYS62       0.0035
     42  CD        10.1130   13.3880   -2.3700 C.3    62  LYS62       0.0206
     43  CE        11.3030   13.2400   -3.2910 C.3    62  LYS62       0.1093
     44  NZ        11.8210   11.8400   -3.4140 N.3    62  LYS62      -0.1314
     45  N          1.4650    4.9260   -2.6490 N.3    94  VAL94      -0.1245
     46  CA         1.0490    6.2150   -2.1490 C.3    94  VAL94       0.1561
     47  C          0.6050    7.0950   -3.3300 C.2    94  VAL94       0.2260
     48  O          1.2090    7.0770   -4.4430 O.2    94  VAL94      -0.2867
     49  CB         2.1590    6.9130   -1.2980 C.3    94  VAL94       0.0252
     50  CG1        3.1030    7.7050   -2.1770 C.3    94  VAL94       0.0019
     51  CG2        1.5180    7.8000   -0.2030 C.3    94  VAL94       0.0019
     52  N          1.7130   14.4310   -1.3570 N.3   110  MET110     -0.1230
     53  CA         1.2030   13.0520   -1.3440 C.3   110  MET110      0.1702
     54  C          0.3020   12.8380   -0.1500 C.2   110  MET110      0.2592
     55  O          0.3420   13.6250    0.7890 O.2   110  MET110     -0.2718
     56  CB         2.3690   12.0640   -1.2800 C.3   110  MET110      0.0401
     57  CG         3.1600   11.9850   -2.6000 C.3   110  MET110      0.0596
     58  SD         4.8610   11.3830   -2.4370 S.3   110  MET110     -0.1393
     59  CE         5.7480   12.7000   -1.5520 C.3   110  MET110      0.0692
     60  N         -0.4970   11.7700   -0.1640 N.am  111  GLU111     -0.1966
     61  CA        -1.3690   11.4660    0.9630 C.3   111  GLU111      0.1733
     62  C         -0.4810   11.1300    2.1540 C.2   111  GLU111      0.2616
     63  O          0.6020   10.5720    1.9730 O.2   111  GLU111     -0.2715
     64  CB        -2.3620   10.3370    0.6520 C.3   111  GLU111      0.0429
     65  CG        -1.7270    9.0470    0.1740 C.3   111  GLU111      0.1163
     66  CD        -2.7190    7.9370   -0.1220 C.2   111  GLU111      0.3649
     67  OE1       -2.3180    6.9810   -0.8070 O.co2 111  GLU111     -0.2457
     68  OE2       -3.8810    7.9990    0.3490 O.co2 111  GLU111     -0.2457
     69  N         -0.9490   11.5020    3.3470 N.am  112  TYR112     -0.1960
     70  CA        -0.1880   11.4530    4.5750 C.3   112  TYR112      0.1771
     71  C         -0.5820   10.2050    5.3260 C.2   112  TYR112      0.2619
     72  O         -1.7770    9.9570    5.5290 O.2   112  TYR112     -0.2715
     73  CB        -0.4700   12.6890    5.4270 C.3   112  TYR112      0.0574
     74  CG         0.2170   12.6680    6.7680 C.ar  112  TYR112     -0.0198
     75  CD1        1.5910   12.5630    6.8510 C.ar  112  TYR112     -0.0009
     76  CD2       -0.5120   12.7270    7.9590 C.ar  112  TYR112     -0.0009
     77  CE1        2.2300   12.5330    8.0670 C.ar  112  TYR112      0.0417
     78  CE2        0.1190   12.6690    9.1800 C.ar  112  TYR112      0.0417
     79  CZ         1.4900   12.5560    9.2400 C.ar  112  TYR112      0.1957
     80  OH         2.1750   12.5420   10.4500 O.3   112  TYR112     -0.2866
     81  N          0.4210    9.4140    5.7120 N.am  113  MET113     -0.1977
     82  CA         0.2290    8.2210    6.5200 C.3   113  MET113      0.1605
     83  C          0.8170    8.4720    7.9050 C.2   113  MET113      0.2287
     84  O          2.0280    8.3370    8.0830 O.2   113  MET113     -0.2864
     85  CB         0.9390    7.0130    5.9070 C.3   113  MET113      0.0413
     86  CG         0.7080    6.7100    4.4210 C.3   113  MET113      0.0598
     87  SD        -0.9440    6.7420    3.7960 S.3   113  MET113     -0.1393
     88  CE        -1.6820    5.8840    4.8670 C.3   113  MET113      0.0692
     89  N          6.5540    4.3950    9.0890 N.3   117  ASP117     -0.1239
     90  CA         7.0070    3.4010    8.1390 C.3   117  ASP117      0.1674
     91  C          7.3790    2.0630    8.8010 C.2   117  ASP117      0.2266
     92  O          7.4390    1.9450   10.0430 O.2   117  ASP117     -0.2867
     93  CB         8.1350    3.9630    7.2580 C.3   117  ASP117      0.1410
     94  CG         9.3570    4.4110    8.0390 C.2   117  ASP117      0.3668
     95  OD1       10.0490    5.2930    7.5200 O.co2 117  ASP117     -0.2456
     96  OD2        9.7340    3.9630    9.1410 O.co2 117  ASP117     -0.2456
     97  N         12.2540    1.4070    5.0010 N.3   160  GLU160     -0.1231
     98  CA        12.1850    2.8640    5.0080 C.3   160  GLU160      0.1699
     99  C         11.2020    3.4410    4.0180 C.2   160  GLU160      0.2592
    100  O         10.7090    4.5720    4.2020 O.2   160  GLU160     -0.2718
    101  CB        13.5800    3.4470    4.7430 C.3   160  GLU160      0.0402
    102  CG        14.5950    3.1460    5.8480 C.3   160  GLU160      0.1161
    103  CD        15.5000    1.9540    5.5850 C.2   160  GLU160      0.3649
    104  OE1       15.0300    0.8870    5.0980 O.co2 160  GLU160     -0.2457
    105  OE2       16.6940    2.0740    5.9030 O.co2 160  GLU160     -0.2457
    106  N         10.9150    2.7060    2.9580 N.am  161  ASN161     -0.1974
    107  CA        10.0370    3.2360    1.9010 C.3   161  ASN161      0.1688
    108  C          8.6140    2.7310    1.9570 C.2   161  ASN161      0.2292
    109  O          7.7850    3.0470    1.0740 O.2   161  ASN161     -0.2864
    110  CB        10.6210    2.9760    0.5130 C.3   161  ASN161      0.1181
    111  CG        11.8360    3.8630    0.2050 C.2   161  ASN161      0.2629
    112  OD1       12.0760    4.8730    0.8780 O.2   161  ASN161     -0.2716
    113  ND2       12.5850    3.4970   -0.8320 N.am  161  ASN161     -0.0877
    114  N          5.2530    2.8220    3.9730 N.3   163  LEU163     -0.1245
    115  CA         4.4090    3.4250    4.9910 C.3   163  LEU163      0.1561
    116  C          3.3030    2.4540    5.4190 C.2   163  LEU163      0.2260
    117  O          2.8630    1.6190    4.6050 O.2   163  LEU163     -0.2867
    118  CB         3.8130    4.7060    4.4620 C.3   163  LEU163      0.0270
    119  CG         4.8230    5.8040    4.1970 C.3   163  LEU163      0.0019
    120  CD1        4.1970    6.8860    3.3140 C.3   163  LEU163      0.0001
    121  CD2        5.3320    6.4050    5.5000 C.3   163  LEU163      0.0001
    122  N          6.3180    4.4320   -0.9390 N.3   173  ALA173     -0.1231
    123  CA         6.3320    5.8900   -0.8130 C.3   173  ALA173      0.1694
    124  C          7.5010    6.6410   -1.3760 C.2   173  ALA173      0.2592
    125  O          7.6320    7.8150   -1.0080 O.2   173  ALA173     -0.2718
    126  CB         6.2170    6.2780    0.6640 C.3   173  ALA173      0.0304
    127  N          8.3760    6.0730   -2.2010 N.am  174  ASP174     -0.1974
    128  CA         9.4710    6.9290   -2.7510 C.3   174  ASP174      0.1709
    129  C          9.8080    6.4140   -4.1460 C.2   174  ASP174      0.2293
    130  O         10.1780    5.2570   -4.2680 O.2   174  ASP174     -0.2864
    131  CB        10.7290    6.8630   -1.8410 C.3   174  ASP174      0.1436
    132  CG        11.8410    7.8700   -2.2270 C.2   174  ASP174      0.3671
    133  OD1       11.9720    8.2740   -3.4060 O.co2 174  ASP174     -0.2456
    134  OD2       12.6650    8.3050   -1.3680 O.co2 174  ASP174     -0.2456
    135  N          7.0220    9.6320   13.6290 N.3   316  PHE316     -0.1241
    136  CA         8.2190    9.9520   12.8800 C.3   316  PHE316      0.1605
    137  C          9.2280   10.5460   13.8280 C.2   316  PHE316      0.2264
    138  O          8.8530   10.9750   14.9320 O.2   316  PHE316     -0.2867
    139  CB         7.8730   10.9540   11.8090 C.3   316  PHE316      0.0534
    140  CG         6.8400   10.4630   10.8900 C.ar  316  PHE316     -0.0203
    141  CD1        7.1970    9.7550    9.7470 C.ar  316  PHE316     -0.0042
    142  CD2        5.4910   10.6450   11.1860 C.ar  316  PHE316     -0.0042
    143  CE1        6.2470    9.2760    8.8890 C.ar  316  PHE316     -0.0003
    144  CE2        4.5080   10.1520   10.3200 C.ar  316  PHE316     -0.0003
    145  CZ         4.9000    9.4630    9.1750 C.ar  316  PHE316     -0.0000
    146  N         13.5790   16.0880   12.8280 N.3   319  TYR319     -0.1241
    147  CA        14.6090   16.4510   11.8560 C.3   319  TYR319      0.1605
    148  C         14.9060   17.9140   11.9920 C.2   319  TYR319      0.2264
    149  O         14.1870   18.6200   12.6520 O.2   319  TYR319     -0.2867
    150  CB        14.1590   16.1400   10.4150 C.3   319  TYR319      0.0534
    151  CG        13.9660   14.6520   10.1530 C.ar  319  TYR319     -0.0201
    152  CD1       12.7910   14.0310   10.4970 C.ar  319  TYR319     -0.0009
    153  CD2       14.9750   13.8760    9.5900 C.ar  319  TYR319     -0.0009
    154  CE1       12.5990   12.6790   10.2950 C.ar  319  TYR319      0.0417
    155  CE2       14.7920   12.5020    9.3750 C.ar  319  TYR319      0.0417
    156  CZ        13.5910   11.9160    9.7350 C.ar  319  TYR319      0.1957
    157  OH        13.3600   10.5720    9.5310 O.3   319  TYR319     -0.2866
@<TRIPOS>BOND
     1    48    47    2
     2   130   129    2
     3   129   128    1
     4    44    43    1
     5   133   132   ar
     6    47    46    1
     7    43    42    1
     8   128   127    1
     9   128   131    1
    10    45    46    1
    11    57    58    1
    12    57    56    1
    13    39    38    2
    14    58    59    1
    15    42    41    1
    16   132   131    1
    17   132   134   ar
    18   127   124   am
    19    50    49    1
    20    46    49    1
    21    41    40    1
    22    40    37    1
    23    38    37    1
    24   124   125    2
    25   124   123    1
    26    52    53    1
    27    53    56    1
    28    53    54    1
    29    49    51    1
    30   122   123    1
    31   113   111   am
    32   123   126    1
    33    67    66   ar
    34    37    36    1
    35    60    54   am
    36    60    61    1
    37    54    55    2
    38    66    65    1
    39    66    68   ar
    40    65    64    1
    41   111   110    1
    42   111   112    2
    43    22    23    2
    44    22    21    1
    45   110   107    1
    46    64    61    1
    47    34    33    2
    48    61    62    1
    49    21    20    1
    50   109   108    2
    51    33    32    1
    52    30    28    1
    53   107   108    1
    54   107   106    1
    55    20    15   am
    56    63    62    2
    57    62    69   am
    58    31    32    1
    59   106    99   am
    60    32    35    1
    61    28    29    1
    62    28    25    1
    63    15    16    2
    64    15    14    1
    65   120   119    1
    66    25    24    1
    67    25    26    1
    68    69    70    1
    69    87    86    1
    70    87    88    1
    71   114   115    1
    72    99   100    2
    73    99    98    1
    74    14    17    1
    75    14    13    1
    76   119   118    1
    77   119   121    1
    78    86    85    1
    79   118   115    1
    80    70    71    1
    81    70    73    1
    82    26    27    2
    83   117   116    2
    84    17    19    1
    85    17    18    1
    86   101    98    1
    87   101   102    1
    88   115   116    1
    89    97    98    1
    90   104   103   ar
    91    12    11    2
    92    71    72    2
    93    71    81   am
    94    13    11   am
    95    73    74    1
    96   103   102    1
    97   103   105   ar
    98    81    82    1
    99    11    10    1
   100    85    82    1
   101    82    83    1
   102    10     9    1
   103    74    75   ar
   104    74    76   ar
   105    75    77   ar
   106     8     6    1
   107    93    94    1
   108    93    90    1
   109     9     3   am
   110     6     5    1
   111    95    94   ar
   112    83    84    2
   113    76    78   ar
   114    94    96   ar
   115    77    79   ar
   116    90    91    1
   117    90    89    1
   118     3     4    2
   119     3     2    1
   120     1     2    1
   121    91    92    2
   122     5     2    1
   123     5     7    1
   124   143   145   ar
   125   143   141   ar
   126   145   144   ar
   127    78    79   ar
   128    79    80    1
   129   155   153   ar
   130   155   156   ar
   131   157   156    1
   132   153   151   ar
   133   156   154   ar
   134   141   140   ar
   135   151   150    1
   136   151   152   ar
   137   154   152   ar
   138   144   142   ar
   139   150   147    1
   140   140   142   ar
   141   140   139    1
   142   139   136    1
   143   147   148    1
   144   147   146    1
   145   148   149    2
   146   136   135    1
   147   136   137    1
   148   137   138    2
