@<TRIPOS>MOLECULE
tmp/2gnjA00.pdb
 168 157 0 0 0
SMALL
GASTEIGER

@<TRIPOS>ATOM
      1  N          8.4550   15.0050    8.3060 N.3    36  ILE36      -0.1231
      2  CA         8.2720   13.6120    8.6640 C.3    36  ILE36       0.1696
      3  C          9.2060   12.6220    7.9370 C.2    36  ILE36       0.2632
      4  O          9.0680   11.3970    8.1030 O.2    36  ILE36      -0.2714
      5  CB         6.8010   13.2420    8.4790 C.3    36  ILE36       0.0266
      6  CG1        6.3280   13.4170    7.0220 C.3    36  ILE36       0.0019
      7  CG2        5.9400   14.0660    9.4620 C.3    36  ILE36       0.0020
      8  CD1        5.0020   12.7530    6.7710 C.3    36  ILE36       0.0001
      9  N         10.1940   13.1290    7.1920 N.am   37  GLY37      -0.1718
     10  CA        11.0440   12.2580    6.3990 C.2    37  GLY37       0.1480
     11  C         12.0800   12.9710    5.5310 C.2    37  GLY37       0.2821
     12  O         11.8530   14.1100    5.0860 O.2    37  GLY37      -0.2669
     13  N         13.2120   12.2870    5.3130 N.am   38  THR38      -0.1902
     14  CA        14.3230   12.7740    4.4940 C.3    38  THR38       0.2031
     15  C         14.7670   11.7030    3.4950 C.2    38  THR38       0.2643
     16  O         14.7540   10.5120    3.7880 O.2    38  THR38      -0.2714
     17  CB        15.5520   13.1150    5.3630 C.3    38  THR38       0.1808
     18  OG1       15.7990   12.0420    6.2800 O.3    38  THR38      -0.2208
     19  CG2       15.3050   14.3210    6.2430 C.3    38  THR38       0.0379
     20  N         15.2080   12.1440    2.3220 N.am   39  GLY39      -0.1939
     21  CA        15.8530   11.2560    1.3810 C.3    39  GLY39       0.2014
     22  C         14.8680   10.4960    0.4900 C.2    39  GLY39       0.2639
     23  O         13.6250   10.6620    0.6280 O.2    39  GLY39      -0.2714
     24  N         15.4040    9.7000   -0.4460 N.am   40  SER40      -0.1949
     25  CA        16.8620    9.6800   -0.7130 C.3    40  SER40       0.1924
     26  C         17.3880   11.0440   -1.2660 C.2    40  SER40       0.2314
     27  O         18.5720   11.3870   -1.1030 O.2    40  SER40      -0.2863
     28  CB        17.2910    8.4960   -1.6090 C.3    40  SER40       0.2116
     29  OG        16.3190    8.1260   -2.5640 O.3    40  SER40      -0.2180
     30  N         10.2170   15.4380    3.1370 N.3    44  VAL44      -0.1245
     31  CA         8.7920   15.2560    3.0820 C.3    44  VAL44       0.1561
     32  C          8.2310   15.8510    4.3470 C.2    44  VAL44       0.2260
     33  O          8.6940   15.5270    5.4570 O.2    44  VAL44      -0.2867
     34  CB         8.3950   13.7780    2.9990 C.3    44  VAL44       0.0252
     35  CG1        6.8460   13.6460    3.0810 C.3    44  VAL44       0.0019
     36  CG2        8.8830   13.1810    1.7350 C.3    44  VAL44       0.0019
     37  N          1.1850   14.7420    2.6390 N.3    57  ALA57      -0.1245
     38  CA         2.6450   14.7250    2.7990 C.3    57  ALA57       0.1562
     39  C          3.2820   15.3190    1.5490 C.2    57  ALA57       0.2260
     40  O          3.0990   14.8010    0.4450 O.2    57  ALA57      -0.2867
     41  CB         3.1420   13.3310    2.9600 C.3    57  ALA57       0.0290
     42  N          6.5180   16.2940   -0.5850 N.3    59  LYS59      -0.1245
     43  CA         7.9450   16.1810   -0.8800 C.3    59  LYS59       0.1561
     44  C          8.4170   17.3930   -1.5940 C.2    59  LYS59       0.2260
     45  O          7.8300   17.8220   -2.5670 O.2    59  LYS59      -0.2867
     46  CB         8.2160   14.9990   -1.7580 C.3    59  LYS59       0.0271
     47  CG         9.6150   14.8610   -2.1980 C.3    59  LYS59       0.0035
     48  CD         9.8600   13.3960   -2.6980 C.3    59  LYS59       0.0206
     49  CE        11.2230   13.2160   -3.3760 C.3    59  LYS59       0.1093
     50  NZ        11.5910   11.7450   -3.5400 N.3    59  LYS59      -0.1314
     51  N          1.5150    4.7490   -2.8060 N.3    91  VAL91      -0.1245
     52  CA         1.1300    6.0400   -2.2810 C.3    91  VAL91       0.1561
     53  C          0.5950    6.8670   -3.4350 C.2    91  VAL91       0.2260
     54  O          1.1410    6.8190   -4.5510 O.2    91  VAL91      -0.2867
     55  CB         2.3130    6.7680   -1.5950 C.3    91  VAL91       0.0252
     56  CG1        3.2530    7.4570   -2.6380 C.3    91  VAL91       0.0019
     57  CG2        1.8110    7.7770   -0.5920 C.3    91  VAL91       0.0019
     58  N          1.6630   14.1030   -1.7370 N.3   107  MET107     -0.1230
     59  CA         1.0540   12.7980   -1.6870 C.3   107  MET107      0.1702
     60  C          0.0160   12.7550   -0.6070 C.2   107  MET107      0.2592
     61  O         -0.0710   13.6410    0.2100 O.2   107  MET107     -0.2718
     62  CB         2.0880   11.7300   -1.3320 C.3   107  MET107      0.0401
     63  CG         3.2330   11.5610   -2.2990 C.3   107  MET107      0.0596
     64  SD         4.5770   10.8360   -1.3410 S.3   107  MET107     -0.1393
     65  CE         5.4980   12.2690   -0.8140 C.3   107  MET107      0.0692
     66  N         -0.7540   11.6910   -0.6030 N.am  108  GLU108     -0.1966
     67  CA        -1.6910   11.4150    0.4660 C.3   108  GLU108      0.1733
     68  C         -0.8620   11.2300    1.7240 C.2   108  GLU108      0.2616
     69  O          0.2950   10.7900    1.6430 O.2   108  GLU108     -0.2715
     70  CB        -2.5240   10.1750    0.1300 C.3   108  GLU108      0.0429
     71  CG        -1.6840    8.9620   -0.1380 C.3   108  GLU108      0.1163
     72  CD        -2.4960    7.6810   -0.2960 C.2   108  GLU108      0.3649
     73  OE1       -3.5380    7.5650    0.3540 O.co2 108  GLU108     -0.2457
     74  OE2       -2.0420    6.7860   -1.0440 O.co2 108  GLU108     -0.2457
     75  N         -1.4230   11.5840    2.8760 N.am  109  TYR109     -0.1960
     76  CA        -0.7170   11.4030    4.1430 C.3   109  TYR109      0.1771
     77  C         -1.0320   10.0390    4.7380 C.2   109  TYR109      0.2619
     78  O         -2.1820    9.6930    5.0330 O.2   109  TYR109     -0.2715
     79  CB        -1.0420   12.5090    5.1350 C.3   109  TYR109      0.0574
     80  CG        -0.4360   12.3170    6.4970 C.ar  109  TYR109     -0.0198
     81  CD1       -1.1980   12.4470    7.6570 C.ar  109  TYR109     -0.0009
     82  CD2        0.9020   12.0060    6.6290 C.ar  109  TYR109     -0.0009
     83  CE1       -0.5950   12.2610    8.9360 C.ar  109  TYR109      0.0417
     84  CE2        1.4890   11.8260    7.8550 C.ar  109  TYR109      0.0417
     85  CZ         0.7650   11.9510    8.9930 C.ar  109  TYR109      0.1957
     86  OH         1.4240   11.7390   10.1820 O.3   109  TYR109     -0.2866
     87  N          0.0310    9.2660    4.9280 N.am  110  VAL110     -0.1977
     88  CA        -0.0510    7.9130    5.4750 C.3   110  VAL110      0.1596
     89  C          0.4580    7.9940    6.9190 C.2   110  VAL110      0.2287
     90  O          1.6530    8.0380    7.1520 O.2   110  VAL110     -0.2864
     91  CB         0.7790    6.9420    4.6120 C.3   110  VAL110      0.0276
     92  CG1        0.4430    5.5210    4.9400 C.3   110  VAL110      0.0022
     93  CG2        0.5250    7.1770    3.1520 C.3   110  VAL110      0.0022
     94  N          6.6820    4.5750    8.7360 N.3   114  GLU114     -0.1245
     95  CA         7.4690    3.6700    7.9310 C.3   114  GLU114      0.1567
     96  C          7.5420    2.2810    8.5680 C.2   114  GLU114      0.2260
     97  O          7.6070    2.1310    9.8100 O.2   114  GLU114     -0.2867
     98  CB         8.9020    4.2350    7.7970 C.3   114  GLU114      0.0388
     99  CG         8.9900    5.5420    7.0270 C.3   114  GLU114      0.1160
    100  CD        10.3080    6.3080    7.1860 C.2   114  GLU114      0.3649
    101  OE1       11.3630    5.6890    7.5140 O.co2 114  GLU114     -0.2457
    102  OE2       10.2890    7.5520    6.9420 O.co2 114  GLU114     -0.2457
    103  N         14.1930    0.4310   -5.4340 N.3   153  ASP153     -0.1239
    104  CA        14.6310    0.8250   -4.0880 C.3   153  ASP153      0.1674
    105  C         13.7470    0.2890   -2.9950 C.2   153  ASP153      0.2266
    106  O         13.4460    0.9880   -2.0310 O.2   153  ASP153     -0.2867
    107  CB        14.6960    2.3490   -4.0090 C.3   153  ASP153      0.1410
    108  CG        15.5070    2.8410   -2.8160 C.2   153  ASP153      0.3668
    109  OD1       16.4510    2.1700   -2.3650 O.co2 153  ASP153     -0.2456
    110  OD2       15.2050    3.8960   -2.2420 O.co2 153  ASP153     -0.2456
    111  N         12.7980   -1.2370    0.2610 N.3   155  LYS155     -0.1245
    112  CA        13.3620   -1.3960    1.6140 C.3   155  LYS155      0.1561
    113  C         12.2920   -0.9350    2.6030 C.2   155  LYS155      0.2260
    114  O         11.4170   -0.1520    2.2340 O.2   155  LYS155     -0.2867
    115  CB        14.6080   -0.5500    1.7790 C.3   155  LYS155      0.0271
    116  CG        14.4000    0.9090    1.5550 C.3   155  LYS155      0.0035
    117  CD        15.7380    1.6640    1.4610 C.3   155  LYS155      0.0206
    118  CE        15.5510    3.1420    1.2600 C.3   155  LYS155      0.1093
    119  NZ        16.8250    3.8210    0.8760 N.3   155  LYS155     -0.1314
    120  N         12.1420    1.2820    4.8030 N.3   157  GLU157     -0.1231
    121  CA        12.1230    2.7240    4.9090 C.3   157  GLU157      0.1699
    122  C         11.1310    3.3420    3.9600 C.2   157  GLU157      0.2592
    123  O         10.5870    4.4390    4.2360 O.2   157  GLU157     -0.2718
    124  CB        13.5300    3.2940    4.6110 C.3   157  GLU157      0.0402
    125  CG        14.6070    3.0310    5.6670 C.3   157  GLU157      0.1161
    126  CD        15.5400    1.8220    5.3880 C.2   157  GLU157      0.3649
    127  OE1       15.0880    0.7670    4.8850 O.co2 157  GLU157     -0.2457
    128  OE2       16.7490    1.9240    5.6870 O.co2 157  GLU157     -0.2457
    129  N         10.9270    2.7010    2.8130 N.am  158  ASN158     -0.1974
    130  CA        10.0280    3.2350    1.7710 C.3   158  ASN158      0.1688
    131  C          8.6010    2.6910    1.8410 C.2   158  ASN158      0.2292
    132  O          7.7600    3.0010    0.9740 O.2   158  ASN158     -0.2864
    133  CB        10.5940    2.9640    0.3520 C.3   158  ASN158      0.1181
    134  CG        11.8970    3.7550    0.0540 C.2   158  ASN158      0.2629
    135  OD1       12.4040    4.4670    0.9160 O.2   158  ASN158     -0.2716
    136  ND2       12.4520    3.5840   -1.1630 N.am  158  ASN158     -0.0877
    137  N          5.1900    2.6310    3.7400 N.3   160  LEU160     -0.1245
    138  CA         4.4010    3.2960    4.7680 C.3   160  LEU160      0.1561
    139  C          3.2520    2.3890    5.2010 C.2   160  LEU160      0.2260
    140  O          2.7350    1.6820    4.3730 O.2   160  LEU160     -0.2867
    141  CB         3.8910    4.6130    4.2320 C.3   160  LEU160      0.0270
    142  CG         5.0430    5.4890    3.7340 C.3   160  LEU160      0.0019
    143  CD1        4.5440    6.5390    2.8050 C.3   160  LEU160      0.0001
    144  CD2        5.7580    6.1000    4.9190 C.3   160  LEU160      0.0001
    145  N          6.3070    4.2390   -1.1730 N.3   170  ALA170     -0.1231
    146  CA         6.6320    5.6520   -1.4950 C.3   170  ALA170      0.1694
    147  C          8.0560    5.7660   -1.9600 C.2   170  ALA170      0.2592
    148  O          8.8780    4.8780   -1.7150 O.2   170  ALA170     -0.2718
    149  CB         6.4050    6.5120   -0.2940 C.3   170  ALA170      0.0304
    150  N          8.3570    6.8930   -2.5790 N.am  171  ASP171     -0.1974
    151  CA         9.6760    7.2450   -3.0810 C.3   171  ASP171      0.1709
    152  C          9.9980    6.4680   -4.3670 C.2   171  ASP171      0.2293
    153  O         10.5510    5.3460   -4.3440 O.2   171  ASP171     -0.2864
    154  CB        10.7720    7.0700   -2.0370 C.3   171  ASP171      0.1436
    155  CG        12.0350    7.8600   -2.3760 C.2   171  ASP171      0.3671
    156  OD1       12.2030    8.2450   -3.5800 O.co2 171  ASP171     -0.2456
    157  OD2       12.9120    8.1250   -1.5050 O.co2 171  ASP171     -0.2456
    158  N          6.2460    9.0400   13.2860 N.3   313  PHE313     -0.1241
    159  CA         7.4670    9.3630   12.5600 C.3   313  PHE313      0.1605
    160  C          8.4680    9.9470   13.5190 C.2   313  PHE313      0.2264
    161  O          8.1070   10.4700   14.5590 O.2   313  PHE313     -0.2867
    162  CB         7.1980   10.3350   11.4180 C.3   313  PHE313      0.0534
    163  CG         6.2780    9.7840   10.3620 C.ar  313  PHE313     -0.0203
    164  CD1        6.7890    9.1420    9.2470 C.ar  313  PHE313     -0.0042
    165  CD2        4.8900    9.8990   10.4910 C.ar  313  PHE313     -0.0042
    166  CE1        5.9390    8.6320    8.2870 C.ar  313  PHE313     -0.0003
    167  CE2        4.0370    9.4090    9.5220 C.ar  313  PHE313     -0.0003
    168  CZ         4.5560    8.7710    8.4270 C.ar  313  PHE313     -0.0000
@<TRIPOS>BOND
     1   103   104    1
     2    54    53    2
     3   152   153    2
     4   152   151    1
     5   104   107    1
     6   104   105    1
     7   107   108    1
     8   156   155   ar
     9    50    49    1
    10    53    52    1
    11    49    48    1
    12   151   150    1
    13   151   154    1
    14   105   106    2
    15   108   109   ar
    16   108   110   ar
    17    51    52    1
    18    48    47    1
    19    56    55    1
    20   150   147   am
    21    45    44    2
    22    29    28    1
    23   155   154    1
    24   155   157   ar
    25    63    64    1
    26    63    62    1
    27    52    55    1
    28    47    46    1
    29   147   148    2
    30   147   146    1
    31    46    43    1
    32    58    59    1
    33    59    62    1
    34    59    60    1
    35    28    25    1
    36    55    57    1
    37    44    43    1
    38   146   145    1
    39   146   149    1
    40    64    65    1
    41    26    27    2
    42    26    25    1
    43   136   134   am
    44    74    72   ar
    45    43    42    1
    46    25    24    1
    47    60    66   am
    48    60    61    2
    49    66    67    1
    50    24    22   am
    51    72    71    1
    52    72    73   ar
    53    71    70    1
    54   134   133    1
    55   134   135    2
    56    70    67    1
    57   111   112    1
    58   133   130    1
    59    40    39    2
    60    67    68    1
    61    22    23    2
    62    22    21    1
    63   119   118    1
    64   132   131    2
    65   118   117    1
    66    21    20    1
    67   117   116    1
    68    39    38    1
    69   116   115    1
    70   112   115    1
    71   112   113    1
    72    69    68    2
    73    68    75   am
    74    36    34    1
    75   130   131    1
    76   130   129    1
    77   114   113    2
    78    20    15   am
    79    37    38    1
    80    38    41    1
    81   143   142    1
    82   129   122   am
    83    75    76    1
    84    34    35    1
    85    34    31    1
    86    31    30    1
    87    31    32    1
    88    93    91    1
    89    15    16    2
    90    15    14    1
    91   142   141    1
    92   142   144    1
    93   137   138    1
    94   122   123    2
    95   122   121    1
    96    76    77    1
    97    76    79    1
    98   141   138    1
    99    32    33    2
   100   140   139    2
   101    14    13    1
   102    14    17    1
   103   124   121    1
   104   124   125    1
   105    91    92    1
   106    91    88    1
   107    77    87   am
   108    77    78    2
   109   138   139    1
   110   120   121    1
   111   127   126   ar
   112    87    88    1
   113    12    11    2
   114    79    80    1
   115    13    11   am
   116    17    19    1
   117    17    18    1
   118   126   125    1
   119   126   128   ar
   120    88    89    1
   121    11    10    1
   122    10     9    2
   123    80    82   ar
   124    80    81   ar
   125    82    84   ar
   126     8     6    1
   127    89    90    2
   128   102   100   ar
   129     6     5    1
   130    99   100    1
   131    99    98    1
   132   100   101   ar
   133     9     3    1
   134    81    83   ar
   135    98    95    1
   136    84    85   ar
   137    95    96    1
   138    95    94    1
   139     3     4    2
   140     3     2    1
   141   166   168   ar
   142   166   164   ar
   143     1     2    1
   144   168   167   ar
   145     5     2    1
   146     5     7    1
   147    96    97    2
   148    83    85   ar
   149    85    86    1
   150   164   163   ar
   151   167   165   ar
   152   163   165   ar
   153   163   162    1
   154   162   159    1
   155   159   158    1
   156   159   160    1
   157   160   161    2
