@<TRIPOS>MOLECULE
tmp/2gnkA00.pdb
 122 119 0 0 0
SMALL
GASTEIGER

@<TRIPOS>ATOM
      1  N        -10.6060   29.3790    1.9250 N.3     7  ILE7       -0.1231
      2  CA       -10.6330   30.1650    3.1680 C.3     7  ILE7        0.1692
      3  C        -12.0190   29.9970    3.7890 C.2     7  ILE7        0.2592
      4  O        -13.0370   30.3450    3.1680 O.2     7  ILE7       -0.2718
      5  CB       -10.2920   31.6510    2.9590 C.3     7  ILE7        0.0266
      6  CG1       -8.9410   31.7660    2.2280 C.3     7  ILE7        0.0019
      7  CG2      -10.2200   32.3430    4.3300 C.3     7  ILE7        0.0020
      8  CD1       -8.4910   33.1570    1.9400 C.3     7  ILE7        0.0001
      9  N        -12.0370   29.4030    4.9870 N.am    8  ILE8       -0.1966
     10  CA       -13.2650   29.0580    5.6960 C.3     8  ILE8        0.1727
     11  C        -13.2230   29.2690    7.2010 C.2     8  ILE8        0.2616
     12  O        -12.1880   29.6440    7.7620 O.2     8  ILE8       -0.2715
     13  CB       -13.5750   27.5640    5.5210 C.3     8  ILE8        0.0290
     14  CG1      -12.3560   26.7460    5.9750 C.3     8  ILE8        0.0022
     15  CG2      -13.9810   27.2720    4.0890 C.3     8  ILE8        0.0023
     16  CD1      -12.5640   25.2500    6.0460 C.3     8  ILE8        0.0001
     17  N        -14.3730   29.0340    7.8390 N.am    9  LYS9       -0.1977
     18  CA       -14.5440   29.1250    9.2810 C.3     9  LYS9        0.1596
     19  C        -13.6360   28.0570    9.8920 C.2     9  LYS9        0.2287
     20  O        -13.5740   26.9360    9.3690 O.2     9  LYS9       -0.2864
     21  CB       -16.0060   28.7990    9.6380 C.3     9  LYS9        0.0298
     22  CG       -16.9930   29.6610    8.8850 C.3     9  LYS9        0.0038
     23  CD       -17.8350   30.5280    9.8150 C.3     9  LYS9        0.0206
     24  CE       -18.3970   31.7630    9.1030 C.3     9  LYS9        0.1093
     25  NZ       -19.8540   32.0020    9.2810 N.3     9  LYS9       -0.1314
     26  N         -5.7100   32.8230    9.9110 N.3    33  VAL33      -0.1231
     27  CA        -5.7920   34.1770    9.3860 C.3    33  VAL33       0.1692
     28  C         -7.0490   34.8770    9.8970 C.2    33  VAL33       0.2592
     29  O         -7.8080   34.3110   10.6780 O.2    33  VAL33      -0.2718
     30  CB        -5.7660   34.1880    7.8050 C.3    33  VAL33       0.0266
     31  CG1       -4.5720   33.4030    7.2730 C.3    33  VAL33       0.0020
     32  CG2       -7.0610   33.6100    7.2220 C.3    33  VAL33       0.0020
     33  N         -7.2480   36.1250    9.4920 N.am   34  LYS34      -0.1966
     34  CA        -8.4270   36.8860    9.9010 C.3    34  LYS34       0.1728
     35  C         -9.0880   37.4220    8.6400 C.2    34  LYS34       0.2617
     36  O         -8.4250   38.0100    7.7860 O.2    34  LYS34      -0.2715
     37  CB        -8.0310   38.0520   10.8540 C.3    34  LYS34       0.0311
     38  CG        -7.4070   37.6060   12.1730 C.3    34  LYS34       0.0038
     39  CD        -8.4470   37.0670   13.1370 C.3    34  LYS34       0.0206
     40  CE        -8.0580   37.3620   14.5950 C.3    34  LYS34       0.1093
     41  NZ        -6.7980   36.7240   15.0190 N.3    34  LYS34      -0.1314
     42  N        -10.3830   37.2040    8.5110 N.am   35  GLY35      -0.1940
     43  CA       -11.0830   37.6640    7.3280 C.3    35  GLY35       0.2014
     44  C        -12.0810   38.7260    7.6950 C.2    35  GLY35       0.2639
     45  O        -12.8340   38.5750    8.6480 O.2    35  GLY35      -0.2714
     46  N        -12.0830   39.8130    6.9400 N.am   36  PHE36      -0.1959
     47  CA       -12.9800   40.9200    7.2090 C.3    36  PHE36       0.1774
     48  C        -14.2360   40.8030    6.3670 C.2    36  PHE36       0.2659
     49  O        -14.4560   41.6150    5.4610 O.2    36  PHE36      -0.2711
     50  CB       -12.2630   42.2600    6.9700 C.3    36  PHE36       0.0574
     51  CG       -11.0920   42.4930    7.9000 C.ar   36  PHE36      -0.0200
     52  CD1      -10.0450   41.5760    7.9800 C.ar   36  PHE36      -0.0042
     53  CD2      -11.0490   43.6120    8.7150 C.ar   36  PHE36      -0.0042
     54  CE1       -8.9820   41.7730    8.8530 C.ar   36  PHE36      -0.0003
     55  CE2       -9.9790   43.8210    9.6020 C.ar   36  PHE36      -0.0003
     56  CZ        -8.9510   42.9030    9.6670 C.ar   36  PHE36      -0.0000
     57  N        -15.0750   39.8050    6.6610 N.am   37  GLY37      -0.1730
     58  CA       -16.2840   39.6520    5.8720 C.2    37  GLY37       0.1340
     59  C        -17.4230   38.8160    6.4070 C.2    37  GLY37       0.2521
     60  O        -17.5430   37.6450    6.0670 O.2    37  GLY37      -0.2816
     61  N        -10.1280   32.9660   10.8410 N.3    41  LYS41      -0.1245
     62  CA       -10.3550   32.1230    9.6780 C.3    41  LYS41       0.1561
     63  C         -9.2130   31.1210    9.5430 C.2    41  LYS41       0.2260
     64  O         -8.1570   31.2760   10.1550 O.2    41  LYS41      -0.2867
     65  CB       -10.4090   32.9800    8.4000 C.3    41  LYS41       0.0271
     66  CG       -11.7030   32.9460    7.6640 C.3    41  LYS41       0.0035
     67  CD       -12.7450   33.7010    8.4260 C.3    41  LYS41       0.0206
     68  CE       -14.1290   33.2250    8.0580 C.3    41  LYS41       0.1093
     69  NZ       -15.1640   33.8550    8.9380 N.3    41  LYS41      -0.1314
     70  N        -25.7090   28.8290    4.2520 N.3    68  LYS68      -0.1231
     71  CA       -25.7460   30.0670    5.0420 C.3    68  LYS68       0.1693
     72  C        -24.4990   30.9260    4.8300 C.2    68  LYS68       0.2592
     73  O        -23.3890   30.4040    4.6630 O.2    68  LYS68      -0.2718
     74  CB       -25.9350   29.7610    6.5340 C.3    68  LYS68       0.0285
     75  CG       -27.1140   28.8650    6.8060 C.3    68  LYS68       0.0035
     76  CD       -28.3960   29.6360    6.8280 C.3    68  LYS68       0.0206
     77  CE       -29.6150   28.8010    7.1940 C.3    68  LYS68       0.1093
     78  NZ       -29.8450   27.6420    6.3410 N.3    68  LYS68      -0.1314
     79  N        -24.7040   32.2420    4.8610 N.am   69  ILE69      -0.1966
     80  CA       -23.6500   33.2250    4.6620 C.3    69  ILE69       0.1727
     81  C        -22.3940   32.9280    5.4780 C.2    69  ILE69       0.2617
     82  O        -22.4610   32.7970    6.6980 O.2    69  ILE69      -0.2715
     83  CB       -24.1790   34.6190    4.9820 C.3    69  ILE69       0.0290
     84  CG1      -25.1800   35.0280    3.8820 C.3    69  ILE69       0.0022
     85  CG2      -23.0540   35.6150    5.1290 C.3    69  ILE69       0.0023
     86  CD1      -25.9770   36.2600    4.2100 C.3    69  ILE69       0.0001
     87  N        -21.2540   32.8100    4.7990 N.am   70  GLY70      -0.1940
     88  CA       -20.0030   32.5260    5.4810 C.3    70  GLY70       0.2014
     89  C        -19.4570   31.1340    5.2280 C.2    70  GLY70       0.2639
     90  O        -18.6620   30.6370    6.0220 O.2    70  GLY70      -0.2714
     91  N        -19.8800   30.5040    4.1260 N.am   71  ASP71      -0.1957
     92  CA       -19.4110   29.1540    3.7390 C.3    71  ASP71       0.1840
     93  C        -17.9630   29.1640    3.2340 C.2    71  ASP71       0.2623
     94  O        -17.3310   28.1190    3.1620 O.2    71  ASP71      -0.2715
     95  CB       -20.3070   28.5150    2.6470 C.3    71  ASP71       0.1450
     96  CG       -21.6650   28.0390    3.1800 C.2    71  ASP71       0.3671
     97  OD1      -21.8870   28.1050    4.4190 O.co2  71  ASP71      -0.2456
     98  OD2      -22.4980   27.5980    2.3490 O.co2  71  ASP71      -0.2456
     99  N        -17.4700   30.3310    2.8190 N.am   72  GLY72      -0.1940
    100  CA       -16.1000   30.4390    2.3360 C.3    72  GLY72       0.2014
    101  C        -16.0000   30.6660    0.8410 C.2    72  GLY72       0.2638
    102  O        -17.0280   30.7120    0.1410 O.2    72  GLY72      -0.2714
    103  N        -14.7700   30.8630    0.3600 N.am   73  LYS73      -0.1977
    104  CA       -14.5150   31.0620   -1.0760 C.3    73  LYS73       0.1596
    105  C        -13.2940   30.2670   -1.5400 C.2    73  LYS73       0.2287
    106  O        -12.4180   29.9240   -0.7270 O.2    73  LYS73      -0.2864
    107  CB       -14.3100   32.5410   -1.4150 C.3    73  LYS73       0.0298
    108  CG       -15.4980   33.4460   -1.0610 C.3    73  LYS73       0.0038
    109  CD       -15.2940   34.8750   -1.5460 C.3    73  LYS73       0.0206
    110  CE       -16.4200   35.7980   -1.0940 C.3    73  LYS73       0.1093
    111  NZ       -16.1530   37.1690   -1.5480 N.3    73  LYS73      -0.1314
    112  N        -10.0640   30.1340   -4.2580 N.3    75  PHE75      -0.1241
    113  CA        -9.2110   30.9370   -5.1190 C.3    75  PHE75       0.1605
    114  C         -8.2390   30.0130   -5.8740 C.2    75  PHE75       0.2264
    115  O         -7.5500   29.1730   -5.2630 O.2    75  PHE75      -0.2867
    116  CB        -8.4410   31.9720   -4.2820 C.3    75  PHE75       0.0534
    117  CG        -9.3290   32.8820   -3.4440 C.ar   75  PHE75      -0.0203
    118  CD1       -9.7390   34.1300   -3.9260 C.ar   75  PHE75      -0.0042
    119  CD2       -9.7050   32.5180   -2.1500 C.ar   75  PHE75      -0.0042
    120  CE1      -10.5100   35.0070   -3.1310 C.ar   75  PHE75      -0.0003
    121  CE2      -10.4720   33.3790   -1.3500 C.ar   75  PHE75      -0.0003
    122  CZ       -10.8720   34.6330   -1.8410 C.ar   75  PHE75      -0.0000
@<TRIPOS>BOND
     1   114   115    2
     2   114   113    1
     3   113   116    1
     4   113   112    1
     5   116   117    1
     6   118   117   ar
     7   118   120   ar
     8   117   119   ar
     9   120   122   ar
    10   119   121   ar
    11   122   121   ar
    12   111   110    1
    13   109   110    1
    14   109   108    1
    15   105   104    1
    16   105   106    2
    17   107   104    1
    18   107   108    1
    19   104   103    1
    20   102   101    2
    21   103   101   am
    22   101   100    1
    23     1     2    1
    24     8     6    1
    25     6     5    1
    26   100    99    1
    27    98    96   ar
    28    95    96    1
    29    95    92    1
    30    99    93   am
    31     5     2    1
    32     5     7    1
    33    94    93    2
    34     4     3    2
    35     2     3    1
    36    96    97   ar
    37    93    92    1
    38    92    91    1
    39     3     9   am
    40    84    86    1
    41    84    83    1
    42    15    13    1
    43    91    89   am
    44    70    71    1
    45    80    79    1
    46    80    83    1
    47    80    81    1
    48    73    72    2
    49    87    81   am
    50    87    88    1
    51    72    79   am
    52    72    71    1
    53    83    85    1
    54     9    10    1
    55    71    74    1
    56    89    88    1
    57    89    90    2
    58    49    48    2
    59    81    82    2
    60    13    10    1
    61    13    14    1
    62    10    11    1
    63    58    59    1
    64    58    57    2
    65    14    16    1
    66    60    59    2
    67    78    77    1
    68    48    57    1
    69    48    47    1
    70    74    75    1
    71    75    76    1
    72    76    77    1
    73    46    47    1
    74    46    44   am
    75    50    47    1
    76    50    51    1
    77    11    12    2
    78    11    17   am
    79    32    30    1
    80    31    30    1
    81    43    44    1
    82    43    42    1
    83    66    65    1
    84    66    67    1
    85    44    45    2
    86    36    35    2
    87    30    27    1
    88    17    18    1
    89    51    52   ar
    90    51    53   ar
    91    52    54   ar
    92    68    67    1
    93    68    69    1
    94    65    62    1
    95    42    35   am
    96    35    34    1
    97    53    55   ar
    98    54    56   ar
    99    22    21    1
   100    22    23    1
   101    24    25    1
   102    24    23    1
   103    18    21    1
   104    18    19    1
   105    20    19    2
   106    27    28    1
   107    27    26    1
   108    33    28   am
   109    33    34    1
   110    63    62    1
   111    63    64    2
   112    55    56   ar
   113    62    61    1
   114    28    29    2
   115    34    37    1
   116    37    38    1
   117    38    39    1
   118    39    40    1
   119    40    41    1
