@<TRIPOS>MOLECULE
tmp/2gnlA00.pdb
 145 136 0 0 0
SMALL
GASTEIGER

@<TRIPOS>ATOM
      1  N          8.2400   15.5440    8.6310 N.3    39  ILE39      -0.1231
      2  CA         7.9730   14.1560    9.0160 C.3    39  ILE39       0.1692
      3  C          9.0040   13.1600    8.4790 C.2    39  ILE39       0.2593
      4  O          8.9690   12.0160    8.8620 O.2    39  ILE39      -0.2718
      5  CB         6.5580   13.7450    8.5500 C.3    39  ILE39       0.0266
      6  CG1        6.2620   14.2450    7.1190 C.3    39  ILE39       0.0019
      7  CG2        5.4950   14.2490    9.5410 C.3    39  ILE39       0.0020
      8  CD1        4.9390   13.7200    6.5590 C.3    39  ILE39       0.0001
      9  N          9.9050   13.6050    7.5950 N.am   40  GLY40      -0.1942
     10  CA        11.0140   12.7970    7.0920 C.3    40  GLY40       0.2014
     11  C         11.9750   13.6170    6.2120 C.2    40  GLY40       0.2640
     12  O         11.6380   14.6980    5.7950 O.2    40  GLY40      -0.2714
     13  N         13.1740   13.1070    5.9380 N.am   41  THR41      -0.1936
     14  CA        14.1650   13.8160    5.1080 C.3    41  THR41       0.2028
     15  C         14.8210   12.8510    4.1610 C.2    41  THR41       0.2642
     16  O         15.1460   11.7230    4.5470 O.2    41  THR41      -0.2714
     17  CB        15.3130   14.4630    5.9480 C.3    41  THR41       0.1808
     18  OG1       15.6050   13.6600    7.0950 O.3    41  THR41      -0.2208
     19  CG2       14.9060   15.7880    6.5630 C.3    41  THR41       0.0379
     20  N         15.0300   13.3060    2.9300 N.am   42  GLY42      -0.1954
     21  CA        15.9320   12.6410    2.0100 C.3    42  GLY42       0.1869
     22  C         17.0030   13.5650    1.4480 C.2    42  GLY42       0.2309
     23  O         17.0890   14.7540    1.7730 O.2    42  GLY42      -0.2863
     24  N         10.4080   16.2980    3.6200 N.3    47  VAL47      -0.1245
     25  CA         8.9990   15.9160    3.5020 C.3    47  VAL47       0.1561
     26  C          8.2830   16.4900    4.7310 C.2    47  VAL47       0.2260
     27  O          8.7360   16.3160    5.8580 O.2    47  VAL47      -0.2867
     28  CB         8.8000   14.3820    3.4050 C.3    47  VAL47       0.0252
     29  CG1        7.3310   13.9940    3.4570 C.3    47  VAL47       0.0019
     30  CG2        9.3890   13.8470    2.1060 C.3    47  VAL47       0.0019
     31  N          1.3260   14.6340    2.6660 N.3    60  ALA60      -0.1245
     32  CA         2.7780   14.7660    2.7860 C.3    60  ALA60       0.1562
     33  C          3.3210   15.3750    1.5060 C.2    60  ALA60       0.2260
     34  O          3.1580   14.8160    0.4370 O.2    60  ALA60      -0.2867
     35  CB         3.4240   13.4240    3.0310 C.3    60  ALA60       0.0290
     36  N          6.6040   16.5890   -0.5610 N.3    62  LYS62      -0.1245
     37  CA         8.0310   16.3460   -0.6890 C.3    62  LYS62       0.1561
     38  C          8.6060   17.4810   -1.4700 C.2    62  LYS62       0.2260
     39  O          8.2670   17.6510   -2.6210 O.2    62  LYS62      -0.2867
     40  CB         8.2960   15.0350   -1.4290 C.3    62  LYS62       0.0271
     41  CG         9.7900   14.7790   -1.7730 C.3    62  LYS62       0.0035
     42  CD         9.9900   13.2930   -2.1920 C.3    62  LYS62       0.0206
     43  CE        11.3420   12.9520   -2.8240 C.3    62  LYS62       0.1093
     44  NZ        11.4310   11.4750   -3.1820 N.3    62  LYS62      -0.1314
     45  N          1.6440    4.6820   -2.8870 N.3    94  VAL94      -0.1245
     46  CA         1.2740    5.9710   -2.3450 C.3    94  VAL94       0.1561
     47  C          0.8340    6.8750   -3.4960 C.2    94  VAL94       0.2260
     48  O          1.4490    6.8970   -4.5710 O.2    94  VAL94      -0.2867
     49  CB         2.4590    6.5930   -1.5730 C.3    94  VAL94       0.0252
     50  CG1        3.4250    7.4570   -2.5000 C.3    94  VAL94       0.0019
     51  CG2        1.9720    7.3980   -0.4580 C.3    94  VAL94       0.0019
     52  N          1.7460   14.2170   -1.6800 N.3   110  MET110     -0.1230
     53  CA         1.2220   12.8470   -1.7100 C.3   110  MET110      0.1702
     54  C          0.2880   12.5090   -0.5500 C.2   110  MET110      0.2592
     55  O          0.3130   13.1390    0.4700 O.2   110  MET110     -0.2718
     56  CB         2.3820   11.8520   -1.6910 C.3   110  MET110      0.0401
     57  CG         3.3540   12.0300   -2.8570 C.3   110  MET110      0.0596
     58  SD         4.9050   11.2940   -2.4840 S.3   110  MET110     -0.1393
     59  CE         5.7990   12.6190   -1.7710 C.3   110  MET110      0.0692
     60  N         -0.5330   11.4920   -0.7190 N.am  111  GLU111     -0.1966
     61  CA        -1.1840   10.8380    0.4250 C.3   111  GLU111      0.1733
     62  C         -0.3700   10.9090    1.6970 C.2   111  GLU111      0.2616
     63  O          0.6950   10.3290    1.7580 O.2   111  GLU111     -0.2715
     64  CB        -1.3530    9.3460    0.1360 C.3   111  GLU111      0.0429
     65  CG        -2.7190    8.7920    0.4780 C.3   111  GLU111      0.1163
     66  CD        -2.8100    7.3470    0.0450 C.2   111  GLU111      0.3649
     67  OE1       -2.0650    6.9910   -0.8980 O.co2 111  GLU111     -0.2457
     68  OE2       -3.6120    6.5810    0.6570 O.co2 111  GLU111     -0.2457
     69  N         -0.8730   11.5870    2.7150 N.am  112  TYR112     -0.1960
     70  CA        -0.3050   11.4630    4.0480 C.3   112  TYR112      0.1771
     71  C         -0.6890   10.0680    4.5680 C.2   112  TYR112      0.2619
     72  O         -1.8800    9.6800    4.4960 O.2   112  TYR112     -0.2715
     73  CB        -0.8360   12.5440    4.9790 C.3   112  TYR112      0.0574
     74  CG        -0.3460   12.3780    6.3790 C.ar  112  TYR112     -0.0198
     75  CD1        1.0070   12.3490    6.6410 C.ar  112  TYR112     -0.0009
     76  CD2       -1.2310   12.2650    7.4540 C.ar  112  TYR112     -0.0009
     77  CE1        1.4840   12.1960    7.9360 C.ar  112  TYR112      0.0417
     78  CE2       -0.7630   12.1010    8.7700 C.ar  112  TYR112      0.0417
     79  CZ         0.6040   12.0600    8.9980 C.ar  112  TYR112      0.1957
     80  OH         1.1240   11.8970   10.2630 O.3   112  TYR112     -0.2866
     81  N          0.3220    9.3130    5.0350 N.am  113  VAL113     -0.1977
     82  CA         0.1450    7.9530    5.5070 C.3   113  VAL113      0.1596
     83  C          0.6330    7.8110    6.9520 C.2   113  VAL113      0.2287
     84  O          1.8040    7.5460    7.2040 O.2   113  VAL113     -0.2864
     85  CB         0.8700    6.9660    4.6270 C.3   113  VAL113      0.0276
     86  CG1        0.4040    5.5190    4.9660 C.3   113  VAL113      0.0022
     87  CG2        0.6730    7.3080    3.1370 C.3   113  VAL113      0.0022
     88  N          6.9200    4.3090    9.3210 N.3   117  GLU117     -0.1245
     89  CA         7.7280    3.5790    8.3560 C.3   117  GLU117      0.1567
     90  C          7.9040    2.1240    8.8060 C.2   117  GLU117      0.2260
     91  O          8.1900    1.8480    9.9910 O.2   117  GLU117     -0.2867
     92  CB         9.0870    4.2660    8.2170 C.3   117  GLU117      0.0388
     93  CG         8.9660    5.7420    7.8190 C.3   117  GLU117      0.1160
     94  CD         9.9500    6.6460    8.5360 C.2   117  GLU117      0.3649
     95  OE1       10.9350    7.0740    7.8770 O.co2 117  GLU117     -0.2457
     96  OE2        9.7280    6.9180    9.7480 O.co2 117  GLU117     -0.2457
     97  N         12.6120    1.2220    4.7570 N.3   160  GLU160     -0.1231
     98  CA        12.6070    2.6650    4.7580 C.3   160  GLU160      0.1699
     99  C         11.6230    3.1940    3.7440 C.2   160  GLU160      0.2592
    100  O         11.0660    4.2510    3.9480 O.2   160  GLU160     -0.2718
    101  CB        14.0270    3.1840    4.4570 C.3   160  GLU160      0.0402
    102  CG        15.0620    2.9300    5.5560 C.3   160  GLU160      0.1161
    103  CD        15.9850    1.7220    5.3200 C.2   160  GLU160      0.3649
    104  OE1       15.5150    0.6550    4.8750 O.co2 160  GLU160     -0.2457
    105  OE2       17.1960    1.8420    5.6060 O.co2 160  GLU160     -0.2457
    106  N         11.4220    2.5070    2.6230 N.am  161  ASN161     -0.1974
    107  CA        10.4840    2.9960    1.5840 C.3   161  ASN161      0.1688
    108  C          9.0250    2.4560    1.6560 C.2   161  ASN161      0.2292
    109  O          8.2070    2.7530    0.7900 O.2   161  ASN161     -0.2864
    110  CB        11.0950    2.8030    0.1940 C.3   161  ASN161      0.1181
    111  CG        12.2940    3.7490   -0.0530 C.2   161  ASN161      0.2629
    112  OD1       12.4460    4.7840    0.6570 O.2   161  ASN161     -0.2716
    113  ND2       13.1480    3.4060   -1.0400 N.am  161  ASN161     -0.0877
    114  N          5.5650    2.4330    3.8290 N.3   163  LEU163     -0.1245
    115  CA         4.8230    3.1490    4.8530 C.3   163  LEU163      0.1561
    116  C          3.5430    2.4240    5.1740 C.2   163  LEU163      0.2260
    117  O          2.7470    2.2380    4.2810 O.2   163  LEU163     -0.2867
    118  CB         4.4370    4.5530    4.3660 C.3   163  LEU163      0.0270
    119  CG         5.6070    5.4740    4.1200 C.3   163  LEU163      0.0019
    120  CD1        5.0710    6.8330    3.8070 C.3   163  LEU163      0.0001
    121  CD2        6.5300    5.5170    5.3490 C.3   163  LEU163      0.0001
    122  N          6.2510    4.1990   -0.9260 N.3   173  ALA173     -0.1231
    123  CA         6.5350    5.6170   -1.1190 C.3   173  ALA173      0.1694
    124  C          7.7890    5.7080   -1.9750 C.2   173  ALA173      0.2592
    125  O          8.3060    4.6860   -2.4590 O.2   173  ALA173     -0.2718
    126  CB         6.7460    6.2950    0.2080 C.3   173  ALA173      0.0304
    127  N          8.2690    6.9160   -2.1960 N.am  174  ASP174     -0.1974
    128  CA         9.5140    7.0990   -2.9350 C.3   174  ASP174      0.1709
    129  C          9.6870    6.3180   -4.2520 C.2   174  ASP174      0.2293
    130  O          9.8460    5.0900   -4.2690 O.2   174  ASP174     -0.2864
    131  CB        10.7050    6.8600   -2.0310 C.3   174  ASP174      0.1436
    132  CG        11.7640    7.8750   -2.2480 C.2   174  ASP174      0.3671
    133  OD1       12.2310    7.9670   -3.3920 O.co2 174  ASP174     -0.2456
    134  OD2       12.1850    8.6340   -1.3550 O.co2 174  ASP174     -0.2456
    135  N          6.3290    9.2170   13.5880 N.3   316  PHE316     -0.1241
    136  CA         7.4740    9.7020   12.8140 C.3   316  PHE316      0.1605
    137  C          8.3840   10.4950   13.7230 C.2   316  PHE316      0.2264
    138  O          7.9530   11.0360   14.7610 O.2   316  PHE316     -0.2867
    139  CB         7.0320   10.6030   11.6590 C.3   316  PHE316      0.0534
    140  CG         6.2890    9.8780   10.5940 C.ar  316  PHE316     -0.0203
    141  CD1        6.9670    9.1660    9.6450 C.ar  316  PHE316     -0.0042
    142  CD2        4.8980    9.8840   10.5680 C.ar  316  PHE316     -0.0042
    143  CE1        6.2950    8.4680    8.7040 C.ar  316  PHE316     -0.0003
    144  CE2        4.2060    9.1970    9.6030 C.ar  316  PHE316     -0.0003
    145  CZ         4.9010    8.4810    8.6630 C.ar  316  PHE316     -0.0000
@<TRIPOS>BOND
     1    48    47    2
     2   130   129    2
     3   129   128    1
     4    47    46    1
     5   133   132   ar
     6    44    43    1
     7   128   127    1
     8   128   131    1
     9    45    46    1
    10    57    58    1
    11    57    56    1
    12    43    42    1
    13    39    38    2
    14    50    49    1
    15    58    59    1
    16   125   124    2
    17    46    49    1
    18   132   131    1
    19   132   134   ar
    20   127   124   am
    21    42    41    1
    22   124   123    1
    23    41    40    1
    24    53    56    1
    25    53    52    1
    26    53    54    1
    27    49    51    1
    28    38    37    1
    29    40    37    1
    30   123   122    1
    31   123   126    1
    32   113   111   am
    33    67    66   ar
    34    60    54   am
    35    60    61    1
    36    37    36    1
    37    54    55    2
    38   111   110    1
    39   111   112    2
    40    66    65    1
    41    66    68   ar
    42    64    61    1
    43    64    65    1
    44   110   107    1
    45    61    62    1
    46    34    33    2
    47   109   108    2
    48    22    23    2
    49    22    21    1
    50    33    32    1
    51   107   108    1
    52   107   106    1
    53    62    63    2
    54    62    69   am
    55    21    20    1
    56    30    28    1
    57   106    99   am
    58    31    32    1
    59    69    70    1
    60    32    35    1
    61    20    15   am
    62    87    85    1
    63    28    29    1
    64    28    25    1
    65    25    24    1
    66    25    26    1
    67    99   100    2
    68    99    98    1
    69   120   119    1
    70   114   115    1
    71    70    71    1
    72    70    73    1
    73   119   118    1
    74   119   121    1
    75    15    16    2
    76    15    14    1
    77   117   116    2
    78   118   115    1
    79   101    98    1
    80   101   102    1
    81    72    71    2
    82    71    81   am
    83    85    86    1
    84    85    82    1
    85    26    27    2
    86    97    98    1
    87   115   116    1
    88   104   103   ar
    89    73    74    1
    90    81    82    1
    91    14    13    1
    92    14    17    1
    93   103   102    1
    94   103   105   ar
    95    82    83    1
    96    12    11    2
    97    13    11   am
    98    17    19    1
    99    17    18    1
   100    11    10    1
   101    74    75   ar
   102    74    76   ar
   103     8     6    1
   104    75    77   ar
   105    83    84    2
   106    10     9    1
   107     6     5    1
   108    76    78   ar
   109     9     3   am
   110    93    92    1
   111    93    94    1
   112    95    94   ar
   113    77    79   ar
   114    92    89    1
   115    89    90    1
   116    89    88    1
   117     3     4    2
   118     3     2    1
   119    94    96   ar
   120     5     2    1
   121     5     7    1
   122     1     2    1
   123   145   143   ar
   124   145   144   ar
   125   143   141   ar
   126    78    79   ar
   127    90    91    2
   128    79    80    1
   129   144   142   ar
   130   141   140   ar
   131   142   140   ar
   132   140   139    1
   133   139   136    1
   134   136   135    1
   135   136   137    1
   136   137   138    2
