@<TRIPOS>MOLECULE
tmp/2gnuA00.pdb
 84 81 0 0 0
SMALL
GASTEIGER

@<TRIPOS>ATOM
      1  N         15.9760  -46.1400  -29.4090 N.3    18  ILE18      -0.1245
      2  CA        17.1500  -45.5410  -30.0680 C.3    18  ILE18       0.1561
      3  C         17.7610  -46.4160  -31.1960 C.2    18  ILE18       0.2260
      4  O         18.1230  -45.9520  -32.2960 O.2    18  ILE18      -0.2867
      5  CB        18.2100  -45.0670  -28.9920 C.3    18  ILE18       0.0252
      6  CG1       17.7450  -43.7600  -28.3340 C.3    18  ILE18       0.0019
      7  CG2       19.6000  -44.9280  -29.5750 C.3    18  ILE18       0.0019
      8  CD1       18.4460  -43.5170  -26.9450 C.3    18  ILE18       0.0001
      9  N         17.8910  -45.4060  -35.0080 N.3    22  GLN22      -0.1245
     10  CA        19.1110  -45.4180  -35.8020 C.3    22  GLN22       0.1566
     11  C         18.9940  -46.2820  -37.0360 C.2    22  GLN22       0.2260
     12  O         19.4130  -45.8690  -38.0920 O.2    22  GLN22      -0.2867
     13  CB        20.3580  -45.7860  -34.9950 C.3    22  GLN22       0.0367
     14  CG        21.6490  -45.7430  -35.8490 C.3    22  GLN22       0.0905
     15  CD        21.9120  -44.3380  -36.4100 C.2    22  GLN22       0.2608
     16  OE1       21.3870  -43.3500  -35.8640 O.2    22  GLN22      -0.2717
     17  NE2       22.6770  -44.2430  -37.4980 N.am   22  GLN22      -0.0878
     18  N         19.0600  -45.3540  -41.4820 N.3    26  MET26      -0.1245
     19  CA        20.0880  -45.9870  -42.3240 C.3    26  MET26       0.1570
     20  C         19.4900  -46.5320  -43.6250 C.2    26  MET26       0.2261
     21  O         20.0990  -47.3510  -44.3190 O.2    26  MET26      -0.2867
     22  CB        20.7840  -47.1130  -41.5270 C.3    26  MET26       0.0387
     23  CG        21.4940  -46.6010  -40.2970 C.3    26  MET26       0.0595
     24  SD        22.1810  -47.8380  -39.1660 S.3    26  MET26      -0.1393
     25  CE        22.9890  -48.9000  -40.3620 C.3    26  MET26       0.0692
     26  N         23.6120  -46.2110  -46.7120 N.3    30  TYR30      -0.1241
     27  CA        24.2930  -47.3880  -46.1420 C.3    30  TYR30       0.1605
     28  C         24.0720  -48.6030  -47.0600 C.2    30  TYR30       0.2264
     29  O         23.0340  -48.6790  -47.7220 O.2    30  TYR30      -0.2867
     30  CB        23.7390  -47.7600  -44.7640 C.3    30  TYR30       0.0534
     31  CG        24.1490  -46.8270  -43.6680 C.ar   30  TYR30      -0.0201
     32  CD1       23.5930  -45.5570  -43.5820 C.ar   30  TYR30      -0.0009
     33  CD2       25.1310  -47.1820  -42.7270 C.ar   30  TYR30      -0.0009
     34  CE1       23.9650  -44.6780  -42.5850 C.ar   30  TYR30       0.0417
     35  CE2       25.5150  -46.2920  -41.7040 C.ar   30  TYR30       0.0417
     36  CZ        24.9270  -45.0550  -41.6650 C.ar   30  TYR30       0.1957
     37  OH        25.2450  -44.1330  -40.7170 O.3    30  TYR30      -0.2866
     38  N         27.9970  -48.1700  -45.5040 N.3    32  LEU32      -0.1245
     39  CA        29.1180  -47.2400  -45.6420 C.3    32  LEU32       0.1561
     40  C         30.1330  -47.8080  -46.6660 C.2    32  LEU32       0.2260
     41  O         30.2010  -49.0300  -46.8610 O.2    32  LEU32      -0.2867
     42  CB        29.7770  -47.0540  -44.2670 C.3    32  LEU32       0.0270
     43  CG        28.8770  -46.6130  -43.0990 C.3    32  LEU32       0.0019
     44  CD1       29.6860  -46.2920  -41.8570 C.3    32  LEU32       0.0001
     45  CD2       28.1210  -45.3640  -43.5440 C.3    32  LEU32       0.0001
     46  N         34.0560  -51.7430  -41.3140 N.3    42  ASN42      -0.1225
     47  CA        33.2750  -51.2250  -40.2050 C.3    42  ASN42       0.1785
     48  C         32.0430  -50.4500  -40.6630 C.2    42  ASN42       0.2597
     49  O         32.1470  -49.4660  -41.4250 O.2    42  ASN42      -0.2718
     50  CB        34.1170  -50.3120  -39.3270 C.3    42  ASN42       0.1169
     51  CG        33.4180  -49.9630  -37.9900 C.2    42  ASN42       0.2627
     52  OD1       32.5310  -50.6990  -37.4910 O.2    42  ASN42      -0.2716
     53  ND2       33.8310  -48.8410  -37.4020 N.am   42  ASN42      -0.0877
     54  N         30.8970  -50.8960  -40.1600 N.am   43  GLN43      -0.1965
     55  CA        29.5690  -50.3520  -40.4840 C.3    43  GLN43       0.1733
     56  C         28.8360  -49.7850  -39.2320 C.2    43  GLN43       0.2617
     57  O         27.6350  -49.4310  -39.2930 O.2    43  GLN43      -0.2715
     58  CB        28.7310  -51.4490  -41.1750 C.3    43  GLN43       0.0408
     59  CG        29.3020  -51.9440  -42.5270 C.3    43  GLN43       0.0908
     60  CD        29.0520  -50.9610  -43.6540 C.2    43  GLN43       0.2608
     61  OE1       28.1390  -50.1710  -43.5700 O.2    43  GLN43      -0.2717
     62  NE2       29.8610  -51.0050  -44.7200 N.am   43  GLN43      -0.0878
     63  N         29.5480  -49.6990  -38.1060 N.am   44  GLY44      -0.1941
     64  CA        28.9430  -49.2960  -36.8380 C.3    44  GLY44       0.1998
     65  C         28.2510  -50.4460  -36.0920 C.2    44  GLY44       0.2481
     66  O         28.1840  -51.5810  -36.5900 O.2    44  GLY44      -0.2729
     67  N         27.7170  -50.1630  -34.8850 N.am   45  PRO45      -0.2715
     68  CA        27.0720  -51.2230  -34.1110 C.3    45  PRO45       0.1536
     69  C         25.6070  -51.5090  -34.4640 C.2    45  PRO45       0.2598
     70  O         25.0320  -52.4240  -33.8650 O.2    45  PRO45      -0.2715
     71  CB        27.1400  -50.6950  -32.6730 C.3    45  PRO45       0.0310
     72  CG        27.3370  -49.2170  -32.7600 C.3    45  PRO45       0.0237
     73  CD        27.7070  -48.8610  -34.1920 C.3    45  PRO45       0.0939
     74  N         25.0010  -50.7600  -35.3970 N.am   46  PHE46      -0.1974
     75  CA        23.5770  -50.9610  -35.7550 C.3    46  PHE46       0.1639
     76  C         23.4280  -51.6880  -37.1090 C.2    46  PHE46       0.2290
     77  O         24.1200  -51.3490  -38.0680 O.2    46  PHE46      -0.2864
     78  CB        22.8560  -49.6110  -35.8060 C.3    46  PHE46       0.0560
     79  CG        22.9310  -48.8450  -34.5390 C.ar   46  PHE46      -0.0200
     80  CD1       22.0280  -49.0790  -33.5160 C.ar   46  PHE46      -0.0042
     81  CD2       23.9320  -47.9020  -34.3400 C.ar   46  PHE46      -0.0042
     82  CE1       22.0960  -48.3550  -32.3020 C.ar   46  PHE46      -0.0003
     83  CE2       24.0060  -47.1980  -33.1590 C.ar   46  PHE46      -0.0003
     84  CZ        23.0800  -47.4330  -32.1300 C.ar   46  PHE46      -0.0000
@<TRIPOS>BOND
     1    29    28    2
     2    28    27    1
     3    41    40    2
     4    26    27    1
     5    40    39    1
     6    27    30    1
     7    39    38    1
     8    39    42    1
     9    30    31    1
    10    62    60   am
    11    21    20    2
    12    42    43    1
    13    31    32   ar
    14    31    33   ar
    15    60    61    2
    16    60    59    1
    17    20    19    1
    18    32    34   ar
    19    45    43    1
    20    43    44    1
    21    33    35   ar
    22    34    36   ar
    23    59    58    1
    24    19    22    1
    25    19    18    1
    26    35    36   ar
    27    36    37    1
    28    22    23    1
    29    49    48    2
    30    46    47    1
    31    58    55    1
    32    48    47    1
    33    48    54   am
    34    55    54    1
    35    55    56    1
    36    25    24    1
    37    23    24    1
    38    47    50    1
    39    50    51    1
    40    57    56    2
    41    56    63   am
    42    63    64    1
    43    12    11    2
    44    77    76    2
    45    51    52    2
    46    51    53   am
    47    17    15   am
    48    76    75    1
    49    11    10    1
    50    64    65    1
    51    66    65    2
    52    15    16    2
    53    15    14    1
    54    65    67   am
    55    14    13    1
    56    78    75    1
    57    78    79    1
    58    10     9    1
    59    10    13    1
    60    75    74    1
    61    74    69   am
    62    67    73    1
    63    67    68    1
    64    79    81   ar
    65    79    80   ar
    66    69    68    1
    67    69    70    2
    68    81    83   ar
    69    73    72    1
    70    68    71    1
    71    80    82   ar
    72    83    84   ar
    73    72    71    1
    74    82    84   ar
    75     4     3    2
    76     3     2    1
    77     2     1    1
    78     2     5    1
    79     7     5    1
    80     5     6    1
    81     6     8    1
