@<TRIPOS>MOLECULE
tmp/2gnwA00.pdb
 211 203 0 0 0
SMALL
GASTEIGER

@<TRIPOS>ATOM
      1  N         12.2320   66.3090    9.1990 N.3    40  TRP40      -0.1241
      2  CA        12.8810   65.0880    9.6850 C.3    40  TRP40       0.1605
      3  C         12.0260   64.0350   10.4240 C.2    40  TRP40       0.2264
      4  O         12.3430   62.8630   10.6340 O.2    40  TRP40      -0.2867
      5  CB        14.2980   65.4330   10.3320 C.3    40  TRP40       0.0550
      6  CG        15.4690   64.6320    9.4010 C.ar   40  TRP40       0.0003
      7  CD1       15.8650   63.3090    9.5590 C.ar   40  TRP40       0.0946
      8  CD2       16.0780   65.0480    8.1430 C.ar   40  TRP40       0.0152
      9  NE1       16.7220   62.9490    8.5490 N.ar   40  TRP40      -0.2442
     10  CE2       16.8750   63.9860    7.6800 C.ar   40  TRP40       0.0810
     11  CE3       16.0800   66.2340    7.4050 C.ar   40  TRP40       0.0012
     12  CZ2       17.6020   64.0470    6.4990 C.ar   40  TRP40       0.0191
     13  CZ3       16.8140   66.2860    6.3030 C.ar   40  TRP40       0.0001
     14  CH2       17.5510   65.2160    5.8480 C.ar   40  TRP40       0.0015
     15  N         10.3890   62.0740    7.5290 N.3    43  ILE43      -0.1245
     16  CA        11.3340   61.0560    7.0380 C.3    43  ILE43       0.1561
     17  C         11.4970   59.9600    7.9870 C.2    43  ILE43       0.2260
     18  O         11.4910   58.8950    7.5770 O.2    43  ILE43      -0.2867
     19  CB        12.7380   61.7170    6.7880 C.3    43  ILE43       0.0252
     20  CG1       12.6890   62.9290    5.8730 C.3    43  ILE43       0.0019
     21  CG2       13.7780   60.6890    6.2080 C.3    43  ILE43       0.0019
     22  CD1       13.9080   63.8480    5.9520 C.3    43  ILE43       0.0001
     23  N         16.5150   55.7500    8.6450 N.3    50  ALA50      -0.1245
     24  CA        17.1750   56.9040    8.0750 C.3    50  ALA50       0.1562
     25  C         17.7310   57.7680    9.1610 C.2    50  ALA50       0.2260
     26  O         18.8610   57.9790    9.2050 O.2    50  ALA50      -0.2867
     27  CB        16.2170   57.7060    7.2740 C.3    50  ALA50       0.0290
     28  N         20.8850   56.8320   11.2950 N.3    53  MET53      -0.1230
     29  CA        22.2650   57.0870   10.6440 C.3    53  MET53       0.1702
     30  C         22.9940   58.4500   11.1500 C.2    53  MET53       0.2592
     31  O         24.1840   58.8150   10.8320 O.2    53  MET53      -0.2718
     32  CB        22.1450   57.2030    9.0560 C.3    53  MET53       0.0401
     33  CG        21.4060   56.1440    8.2230 C.3    53  MET53       0.0596
     34  SD        21.4880   56.5590    6.4020 S.3    53  MET53      -0.1393
     35  CE        20.5120   57.4490    6.4990 C.3    53  MET53       0.0692
     36  N         22.2280   59.2300   11.8790 N.am   54  PHE54      -0.1976
     37  CA        22.7360   60.3590   12.7050 C.3    54  PHE54       0.1639
     38  C         23.0500   59.8470   14.2190 C.2    54  PHE54       0.2290
     39  O         23.8280   60.4500   15.0400 O.2    54  PHE54      -0.2864
     40  CB        21.5850   61.5150   12.6500 C.3    54  PHE54       0.0560
     41  CG        21.3880   62.0690   11.2160 C.ar   54  PHE54      -0.0200
     42  CD1       20.6090   61.3810   10.2750 C.ar   54  PHE54      -0.0042
     43  CD2       22.1190   63.1780   10.7570 C.ar   54  PHE54      -0.0042
     44  CE1       20.5430   61.7960    8.9520 C.ar   54  PHE54      -0.0003
     45  CE2       22.0630   63.6170    9.4040 C.ar   54  PHE54      -0.0003
     46  CZ        21.2760   62.9390    8.5160 C.ar   54  PHE54      -0.0000
     47  N         22.4970   67.9570   14.5620 N.3    69  LYS69      -0.1245
     48  CA        22.8310   67.3050   13.3150 C.3    69  LYS69       0.1561
     49  C         21.6800   67.3080   12.2400 C.2    69  LYS69       0.2260
     50  O         21.9460   67.3990   11.0540 O.2    69  LYS69      -0.2867
     51  CB        23.2240   65.8500   13.5870 C.3    69  LYS69       0.0271
     52  CG        24.5020   65.5960   14.3260 C.3    69  LYS69       0.0035
     53  CD        24.8170   64.1240   14.1590 C.3    69  LYS69       0.0206
     54  CE        25.3770   63.7940   12.7430 C.3    69  LYS69       0.1093
     55  NZ        25.3720   62.1950   12.2680 N.3    69  LYS69      -0.1314
     56  N         21.1150   69.6720    8.8310 N.3    73  HIS73      -0.1241
     57  CA        20.9950   68.8600    7.6160 C.3    73  HIS73       0.1621
     58  C         19.6530   69.1230    6.8540 C.2    73  HIS73       0.2264
     59  O         19.6850   69.1490    5.6690 O.2    73  HIS73      -0.2867
     60  CB        21.2070   67.3680    7.9390 C.3    73  HIS73       0.0745
     61  CG        21.4240   66.4980    6.7470 C.ar   73  HIS73       0.0817
     62  ND1       20.5270   66.4150    5.7260 N.ar   73  HIS73      -0.2268
     63  CD2       22.4110   65.6410    6.4260 C.ar   73  HIS73       0.1154
     64  CE1       20.9360   65.5410    4.8320 C.ar   73  HIS73       0.1986
     65  NE2       22.0970   65.0930    5.2060 N.ar   73  HIS73      -0.2212
     66  N         20.4770   72.3900    4.8410 N.3    76  SER76      -0.1202
     67  CA        21.2840   72.2680    3.6510 C.3    76  SER76       0.2020
     68  C         20.5830   71.4740    2.4810 C.2    76  SER76       0.2618
     69  O         20.9140   71.6550    1.3380 O.2    76  SER76      -0.2717
     70  CB        22.7410   71.7210    3.9570 C.3    76  SER76       0.2103
     71  OG        22.8690   70.2610    3.9630 O.3    76  SER76      -0.2182
     72  N         19.7200   70.5260    2.7710 N.am   77  VAL77      -0.1979
     73  CA        19.0330   69.8140    1.7770 C.3    77  VAL77       0.1595
     74  C         18.2500   70.9270    1.0310 C.2    77  VAL77       0.2287
     75  O         18.1980   70.9390   -0.1330 O.2    77  VAL77      -0.2864
     76  CB        18.0890   68.7000    2.3860 C.3    77  VAL77       0.0276
     77  CG1       17.1950   68.1280    1.3560 C.3    77  VAL77       0.0022
     78  CG2       18.9250   67.5530    2.9820 C.3    77  VAL77       0.0022
     79  N         20.5690   73.8010   -0.4370 N.3    80  MET80      -0.1230
     80  CA        21.4210   73.3220   -1.5160 C.3    80  MET80       0.1702
     81  C         20.5460   73.0840   -2.6720 C.2    80  MET80       0.2593
     82  O         20.8980   73.3400   -3.7620 O.2    80  MET80      -0.2718
     83  CB        22.1730   72.1080   -1.1180 C.3    80  MET80       0.0401
     84  CG        23.6590   72.4520   -0.6750 C.3    80  MET80       0.0596
     85  SD        24.6920   71.0200   -0.3940 S.3    80  MET80      -0.1393
     86  CE        25.1980   70.8290   -2.0760 C.3    80  MET80       0.0692
     87  N         19.3740   72.5690   -2.4140 N.am   81  THR81      -0.1953
     88  CA        18.3720   72.1430   -3.4560 C.3    81  THR81       0.1897
     89  C         17.7360   73.3570   -4.1450 C.2    81  THR81       0.2313
     90  O         17.1630   73.3340   -5.2130 O.2    81  THR81      -0.2863
     91  CB        17.2720   71.2670   -2.7350 C.3    81  THR81       0.1794
     92  OG1       17.8130   69.9480   -2.5360 O.3    81  THR81      -0.2208
     93  CG2       16.0520   71.1260   -3.6450 C.3    81  THR81       0.0378
     94  N         33.0710   65.5570   -1.6350 N.3   103  ARG103     -0.1231
     95  CA        32.9910   65.3880   -0.1560 C.3   103  ARG103      0.1694
     96  C         31.5940   64.7820    0.2860 C.2   103  ARG103      0.2591
     97  O         31.5230   63.9920    1.2050 O.2   103  ARG103     -0.2718
     98  CB        33.2860   66.7280    0.5510 C.3   103  ARG103      0.0321
     99  CG        32.9800   66.6540    2.0470 C.3   103  ARG103      0.0489
    100  CD        33.3470   67.9240    2.8040 C.3   103  ARG103      0.2205
    101  NE        32.1710   68.6650    3.1330 N.pl3 103  ARG103     -0.0865
    102  CZ        31.4320   69.3040    2.2680 C.cat 103  ARG103      0.5346
    103  NH1       31.6900   69.2350    1.0070 N.pl3 103  ARG103      0.1354
    104  NH2       30.3800   69.9760    2.6800 N.pl3 103  ARG103      0.1354
    105  N         30.5520   65.2250   -0.4690 N.am  104  LEU104     -0.1980
    106  CA        29.1910   64.8730   -0.4260 C.3   104  LEU104      0.1596
    107  C         28.9030   63.5320   -0.8350 C.2   104  LEU104      0.2287
    108  O         28.0920   62.8920   -0.2460 O.2   104  LEU104     -0.2864
    109  CB        28.3740   65.8160   -1.3190 C.3   104  LEU104      0.0297
    110  CG        27.9910   67.2650   -0.7840 C.3   104  LEU104      0.0022
    111  CD1       26.9210   67.8350   -1.5880 C.3   104  LEU104      0.0001
    112  CD2       27.6650   67.4560    0.5980 C.3   104  LEU104      0.0001
    113  N         30.7510   61.2110    1.8510 N.3   107  THR107     -0.1203
    114  CA        29.8800   61.2310    3.0610 C.3   107  THR107      0.1994
    115  C         28.5790   60.4460    3.0480 C.2   107  THR107      0.2617
    116  O         28.1190   59.9490    4.0460 O.2   107  THR107     -0.2717
    117  CB        29.5890   62.6500    3.3960 C.3   107  THR107      0.1784
    118  OG1       30.7350   63.1840    4.1580 O.3   107  THR107     -0.2211
    119  CG2       28.4660   62.6960    4.2870 C.3   107  THR107      0.0376
    120  N         27.9740   60.3010    1.9060 N.am  108  HIS108     -0.1975
    121  CA        26.7640   59.6010    1.8590 C.3   108  HIS108      0.1656
    122  C         26.9920   58.2000    1.4660 C.2   108  HIS108      0.2291
    123  O         26.2360   57.2750    1.8280 O.2   108  HIS108     -0.2864
    124  CB        25.8420   60.2330    0.8220 C.3   108  HIS108      0.0771
    125  CG        25.3270   61.5720    1.2040 C.ar  108  HIS108      0.0820
    126  ND1       26.0250   62.7270    0.9730 N.ar  108  HIS108     -0.2267
    127  CD2       24.1610   61.9420    1.7160 C.ar  108  HIS108      0.1154
    128  CE1       25.2980   63.7490    1.3190 C.ar  108  HIS108      0.1986
    129  NE2       24.1900   63.2990    1.8590 N.ar  108  HIS108     -0.2212
    130  N         27.7590   56.3400    4.5720 N.3   111  TYR111     -0.1241
    131  CA        26.6630   56.2680    5.5330 C.3   111  TYR111      0.1605
    132  C         25.5550   55.4060    5.1030 C.2   111  TYR111      0.2264
    133  O         24.5550   55.2640    5.8260 O.2   111  TYR111     -0.2867
    134  CB        26.1040   57.6210    6.0050 C.3   111  TYR111      0.0534
    135  CG        26.8810   58.2300    7.1570 C.ar  111  TYR111     -0.0201
    136  CD1       28.0860   58.9330    6.9100 C.ar  111  TYR111     -0.0009
    137  CD2       26.4200   58.1340    8.4600 C.ar  111  TYR111     -0.0009
    138  CE1       28.8380   59.4710    7.9270 C.ar  111  TYR111      0.0417
    139  CE2       27.0840   58.7490    9.4790 C.ar  111  TYR111      0.0417
    140  CZ        28.3740   59.4310    9.2240 C.ar  111  TYR111      0.1957
    141  OH        29.1920   60.0850   10.2960 O.3   111  TYR111     -0.2866
    142  N         23.5550   55.6230    2.4480 N.3   113  VAL113     -0.1245
    143  CA        22.4770   56.2690    1.6990 C.3   113  VAL113      0.1561
    144  C         22.3490   55.6560    0.2190 C.2   113  VAL113      0.2260
    145  O         23.2380   55.6970   -0.5960 O.2   113  VAL113     -0.2867
    146  CB        22.6700   57.8510    1.6810 C.3   113  VAL113      0.0252
    147  CG1       21.4420   58.6670    1.2680 C.3   113  VAL113      0.0019
    148  CG2       23.1540   58.3150    2.9350 C.3   113  VAL113      0.0019
    149  N         16.5260   56.2630    0.2700 N.3   117  HIS117     -0.1226
    150  CA        16.6840   57.3520    1.2120 C.3   117  HIS117      0.1752
    151  C         16.6520   58.6660    0.5150 C.2   117  HIS117      0.2596
    152  O         16.1200   59.5940    1.0610 O.2   117  HIS117     -0.2718
    153  CB        18.0220   57.2840    1.8410 C.3   117  HIS117      0.0759
    154  CG        18.3910   56.0140    2.5190 C.ar  117  HIS117      0.0818
    155  ND1       19.1130   55.0170    1.9270 N.ar  117  HIS117     -0.2268
    156  CD2       18.2820   55.6600    3.8050 C.ar  117  HIS117      0.1154
    157  CE1       19.4100   54.0700    2.8060 C.ar  117  HIS117      0.1986
    158  NE2       18.8600   54.4190    3.9490 N.ar  117  HIS117     -0.2212
    159  N         17.1970   58.7930   -0.7080 N.am  118  PHE118     -0.1976
    160  CA        17.1570   60.0230   -1.5740 C.3   118  PHE118      0.1639
    161  C         15.8310   60.3560   -2.0870 C.2   118  PHE118      0.2290
    162  O         15.4120   61.4610   -2.0740 O.2   118  PHE118     -0.2864
    163  CB        18.0640   59.7830   -2.8110 C.3   118  PHE118      0.0560
    164  CG        19.5610   60.1450   -2.5830 C.ar  118  PHE118     -0.0200
    165  CD1       20.5030   59.2280   -2.7870 C.ar  118  PHE118     -0.0042
    166  CD2       19.9460   61.3630   -2.1480 C.ar  118  PHE118     -0.0042
    167  CE1       21.8970   59.5770   -2.5540 C.ar  118  PHE118     -0.0003
    168  CE2       21.2590   61.7190   -1.9680 C.ar  118  PHE118     -0.0003
    169  CZ        22.2320   60.8610   -2.1760 C.ar  118  PHE118     -0.0000
    170  N         13.4520   61.2920    0.9130 N.3   121  VAL121     -0.1245
    171  CA        13.7350   62.6780    1.4460 C.3   121  VAL121      0.1561
    172  C         13.1410   63.5850    0.5360 C.2   121  VAL121      0.2260
    173  O         12.7120   64.5730    0.8770 O.2   121  VAL121     -0.2867
    174  CB        15.2550   62.9560    1.6500 C.3   121  VAL121      0.0252
    175  CG1       15.4890   64.3100    1.8120 C.3   121  VAL121      0.0019
    176  CG2       15.7960   62.1910    2.7910 C.3   121  VAL121      0.0019
    177  N         16.1740   68.9350   -7.0410 N.3   150  TYR150     -0.1241
    178  CA        16.5800   67.8560   -6.1230 C.3   150  TYR150      0.1605
    179  C         17.1060   66.6690   -6.8750 C.2   150  TYR150      0.2264
    180  O         18.1340   66.2170   -6.6410 O.2   150  TYR150     -0.2867
    181  CB        15.3600   67.4540   -5.2150 C.3   150  TYR150      0.0534
    182  CG        15.6840   66.3630   -4.1960 C.ar  150  TYR150     -0.0201
    183  CD1       15.8850   66.7280   -2.8470 C.ar  150  TYR150     -0.0009
    184  CD2       15.8570   64.9840   -4.5700 C.ar  150  TYR150     -0.0009
    185  CE1       16.1930   65.7740   -1.9530 C.ar  150  TYR150      0.0417
    186  CE2       16.2470   64.0790   -3.6620 C.ar  150  TYR150      0.0417
    187  CZ        16.4110   64.4670   -2.3750 C.ar  150  TYR150      0.1957
    188  OH        16.8240   63.5900   -1.4170 O.3   150  TYR150     -0.2866
    189  N         20.4140   67.4950   -8.4730 N.3   153  LEU153     -0.1231
    190  CA        21.4690   67.6880   -7.3830 C.3   153  LEU153      0.1693
    191  C         21.8600   66.3340   -6.7710 C.2   153  LEU153      0.2591
    192  O         22.9580   66.0220   -6.6470 O.2   153  LEU153     -0.2718
    193  CB        20.9850   68.6340   -6.3520 C.3   153  LEU153      0.0284
    194  CG        21.5900   68.8960   -5.0580 C.3   153  LEU153      0.0019
    195  CD1       22.8730   69.5860   -5.1030 C.3   153  LEU153      0.0001
    196  CD2       20.6200   69.7700   -4.4210 C.3   153  LEU153      0.0001
    197  N         20.9000   65.4500   -6.6310 N.am  154  VAL154     -0.1980
    198  CA        21.2320   64.1030   -6.2770 C.3   154  VAL154      0.1595
    199  C         22.0330   63.3040   -7.2930 C.2   154  VAL154      0.2287
    200  O         22.9880   62.5590   -6.9760 O.2   154  VAL154     -0.2864
    201  CB        19.9760   63.3470   -5.9990 C.3   154  VAL154      0.0276
    202  CG1       20.2230   61.9860   -5.6800 C.3   154  VAL154      0.0022
    203  CG2       19.2500   63.9740   -4.8360 C.3   154  VAL154      0.0022
    204  N         25.8310   64.4830   -6.7070 N.3   157  ILE157     -0.1245
    205  CA        26.3920   63.7100   -5.5660 C.3   157  ILE157      0.1561
    206  C         26.6050   62.2060   -5.8780 C.2   157  ILE157      0.2260
    207  O         27.5720   61.5900   -5.3900 O.2   157  ILE157     -0.2867
    208  CB        25.3990   63.9580   -4.3210 C.3   157  ILE157      0.0252
    209  CG1       25.1590   65.4760   -4.1480 C.3   157  ILE157      0.0019
    210  CG2       25.9560   63.4560   -2.9730 C.3   157  ILE157      0.0019
    211  CD1       26.3840   66.3450   -4.0910 C.3   157  ILE157      0.0001
@<TRIPOS>BOND
     1   189   190    1
     2   190   191    1
     3   190   193    1
     4   199   200    2
     5   199   198    1
     6   177   178    1
     7   179   180    2
     8   179   178    1
     9   191   192    2
    10   191   197   am
    11   204   205    1
    12   197   198    1
    13   193   194    1
    14   198   201    1
    15   178   181    1
    16   201   202    1
    17   201   203    1
    18   206   205    1
    19   206   207    2
    20   205   208    1
    21   181   182    1
    22    90    89    2
    23   195   194    1
    24   194   196    1
    25   184   182   ar
    26   184   186   ar
    27   208   209    1
    28   208   210    1
    29   182   183   ar
    30   209   211    1
    31    89    88    1
    32    82    81    2
    33   186   187   ar
    34    93    91    1
    35    88    91    1
    36    88    87    1
    37   183   185   ar
    38   163   164    1
    39   163   160    1
    40   165   164   ar
    41   165   167   ar
    42    91    92    1
    43    81    87   am
    44    81    80    1
    45   164   166   ar
    46   167   169   ar
    47   187   185   ar
    48   187   188    1
    49   169   168   ar
    50   166   168   ar
    51   161   162    2
    52   161   160    1
    53    86    85    1
    54    94    95    1
    55   111   110    1
    56   160   159    1
    57    80    83    1
    58    80    79    1
    59   109   110    1
    60   109   106    1
    61    83    84    1
    62   107   106    1
    63   107   108    2
    64   110   112    1
    65   159   151   am
    66    84    85    1
    67   145   144    2
    68   105   106    1
    69   105    96   am
    70    95    96    1
    71    95    98    1
    72    75    74    2
    73   144   143    1
    74   149   150    1
    75    96    97    2
    76   151   152    2
    77   151   150    1
    78   172   173    2
    79   172   171    1
    80    98    99    1
    81   124   125    1
    82   124   121    1
    83   170   171    1
    84   126   125   ar
    85   126   128   ar
    86   103   102    1
    87    74    73    1
    88   125   127   ar
    89   150   153    1
    90   147   146    1
    91   128   129   ar
    92    69    68    2
    93    77    76    1
    94   171   174    1
    95   122   123    2
    96   122   121    1
    97   174   175    1
    98   174   176    1
    99   146   143    1
   100   146   148    1
   101   143   142    1
   102   127   129   ar
   103    73    76    1
   104    73    72    1
   105   153   154    1
   106   113   114    1
   107   121   120    1
   108   120   115   am
   109   155   154   ar
   110   155   157   ar
   111    99   100    1
   112   102   104    1
   113   102   101    2
   114    76    78    1
   115    68    72   am
   116    68    67    1
   117   154   156   ar
   118   100   101    1
   119   157   158   ar
   120   115   114    1
   121   115   116    2
   122   114   117    1
   123   117   118    1
   124   117   119    1
   125    67    70    1
   126    67    66    1
   127   156   158   ar
   128    70    71    1
   129   130   131    1
   130    64    65   ar
   131    64    62   ar
   132   132   131    1
   133   132   133    2
   134    65    63   ar
   135   131   134    1
   136    59    58    2
   137    62    61   ar
   138    14    13   ar
   139    14    12   ar
   140    20    22    1
   141    20    19    1
   142   134   135    1
   143    21    19    1
   144    13    11   ar
   145    34    35    1
   146    34    33    1
   147    63    61   ar
   148    12    10   ar
   149    61    60    1
   150    19    16    1
   151    58    57    1
   152   136   135   ar
   153   136   138   ar
   154    16    15    1
   155    16    17    1
   156   135   137   ar
   157    27    24    1
   158    11     8   ar
   159    18    17    2
   160    57    60    1
   161    57    56    1
   162    10     8   ar
   163    10     9   ar
   164   138   140   ar
   165    24    23    1
   166    24    25    1
   167     8     6   ar
   168    33    32    1
   169   137   139   ar
   170    46    44   ar
   171    46    45   ar
   172     9     7   ar
   173    44    42   ar
   174    32    29    1
   175    25    26    2
   176     1     2    1
   177   140   139   ar
   178   140   141    1
   179     6     7   ar
   180     6     5    1
   181    45    43   ar
   182     2     5    1
   183     2     3    1
   184    42    41   ar
   185     3     4    2
   186    29    30    1
   187    29    28    1
   188    43    41   ar
   189    31    30    2
   190    50    49    2
   191    30    36   am
   192    41    40    1
   193    36    37    1
   194    49    48    1
   195    55    54    1
   196    40    37    1
   197    37    38    1
   198    54    53    1
   199    48    51    1
   200    48    47    1
   201    51    52    1
   202    53    52    1
   203    38    39    2
