@<TRIPOS>MOLECULE
tmp/2go3B01.pdb
 140 133 0 0 0
SMALL
GASTEIGER

@<TRIPOS>ATOM
      1  N        -24.3050   19.0700   66.2910 N.3    17  ILE17      -0.1231
      2  CA       -23.1240   18.4090   66.8460 C.3    17  ILE17       0.1692
      3  C        -21.8190   18.7650   66.1330 C.2    17  ILE17       0.2592
      4  O        -20.7690   18.8820   66.7760 O.2    17  ILE17      -0.2718
      5  CB       -23.2960   16.8670   66.8770 C.3    17  ILE17       0.0266
      6  CG1      -22.2890   16.2670   67.8670 C.3    17  ILE17       0.0019
      7  CG2      -23.1050   16.2760   65.4790 C.3    17  ILE17       0.0020
      8  CD1      -22.3440   14.7280   67.9670 C.3    17  ILE17       0.0001
      9  N        -21.8750   18.9550   64.8190 N.am   18  HIS18      -0.1976
     10  CA       -20.6590   19.2920   64.0850 C.3    18  HIS18       0.1656
     11  C        -20.3620   20.7810   63.9560 C.2    18  HIS18       0.2291
     12  O        -19.2310   21.2120   64.1930 O.2    18  HIS18      -0.2864
     13  CB       -20.6900   18.6490   62.6950 C.3    18  HIS18       0.0771
     14  CG       -20.5060   17.1670   62.7240 C.ar   18  HIS18       0.0820
     15  ND1      -19.4610   16.5630   63.3910 N.ar   18  HIS18      -0.2267
     16  CD2      -21.2280   16.1660   62.1680 C.ar   18  HIS18       0.1154
     17  CE1      -19.5450   15.2530   63.2400 C.ar   18  HIS18       0.1986
     18  NE2      -20.6070   14.9860   62.5010 N.ar   18  HIS18      -0.2212
     19  N        -18.4970   11.2200   59.2360 N.3    57  HIS57      -0.1241
     20  CA       -18.9390   11.6270   60.5630 C.3    57  HIS57       0.1621
     21  C        -20.3910   12.0990   60.6240 C.2    57  HIS57       0.2264
     22  O        -20.8860   12.4740   61.6910 O.2    57  HIS57      -0.2867
     23  CB       -17.9920   12.6880   61.1310 C.3    57  HIS57       0.0745
     24  CG       -16.5580   12.2550   61.1450 C.ar   57  HIS57       0.0817
     25  ND1      -16.1140   11.1850   61.8900 N.ar   57  HIS57      -0.2268
     26  CD2      -15.4810   12.7120   60.4650 C.ar   57  HIS57       0.1154
     27  CE1      -14.8260   10.9980   61.6660 C.ar   57  HIS57       0.1986
     28  NE2      -14.4180   11.9100   60.8040 N.ar   57  HIS57      -0.2212
     29  N        -25.5020    8.8430   69.8600 N.3   178  THR178     -0.1203
     30  CA       -24.3000    8.9890   69.0510 C.3   178  THR178      0.1994
     31  C        -23.1040    8.7010   69.9730 C.2   178  THR178      0.2618
     32  O        -23.1350    9.0260   71.1550 O.2   178  THR178     -0.2717
     33  CB       -24.1720   10.4670   68.5760 C.3   178  THR178      0.1784
     34  OG1      -25.3000   10.8100   67.7600 O.3   178  THR178     -0.2211
     35  CG2      -22.8790   10.6750   67.8060 C.3   178  THR178      0.0376
     36  N        -22.0480    8.1120   69.4210 N.am  179  PHE179     -0.1961
     37  CA       -20.8620    7.8050   70.2130 C.3   179  PHE179      0.1771
     38  C        -19.5760    8.0700   69.4370 C.2   179  PHE179      0.2619
     39  O        -19.5820    8.1480   68.2110 O.2   179  PHE179     -0.2715
     40  CB       -20.8880    6.3390   70.6550 C.3   179  PHE179      0.0574
     41  CG       -20.7260    5.3610   69.5180 C.ar  179  PHE179     -0.0200
     42  CD1      -19.4680    4.8520   69.1970 C.ar  179  PHE179     -0.0042
     43  CD2      -21.8230    4.9530   68.7650 C.ar  179  PHE179     -0.0042
     44  CE1      -19.3090    3.9500   68.1400 C.ar  179  PHE179     -0.0003
     45  CE2      -21.6700    4.0520   67.7070 C.ar  179  PHE179     -0.0003
     46  CZ       -20.4170    3.5500   67.3930 C.ar  179  PHE179     -0.0000
     47  N        -18.4800    8.2190   70.1720 N.am  180  ALA180     -0.1977
     48  CA       -17.1670    8.4550   69.5800 C.3   180  ALA180      0.1597
     49  C        -16.1140    7.9640   70.5680 C.2   180  ALA180      0.2287
     50  O        -16.3730    7.8900   71.7650 O.2   180  ALA180     -0.2864
     51  CB       -16.9870    9.9380   69.3060 C.3   180  ALA180      0.0319
     52  N        -10.3480    9.4580   68.8130 N.3   184  GLU184     -0.1231
     53  CA       -10.8220   10.0080   67.5330 C.3   184  GLU184      0.1699
     54  C        -11.1200   11.5000   67.6240 C.2   184  GLU184      0.2592
     55  O        -11.1810   12.1890   66.6070 O.2   184  GLU184     -0.2718
     56  CB       -12.1290    9.3400   67.0870 C.3   184  GLU184      0.0402
     57  CG       -12.1490    7.8420   67.0430 C.3   184  GLU184      0.1161
     58  CD       -13.4930    7.3140   66.5370 C.2   184  GLU184      0.3649
     59  OE1      -14.5600    7.6950   67.1110 O.co2 184  GLU184     -0.2457
     60  OE2      -13.4900    6.5340   65.5590 O.co2 184  GLU184     -0.2457
     61  N        -11.3250   11.9860   68.8420 N.am  185  ILE185     -0.1980
     62  CA       -11.6730   13.3850   69.0700 C.3   185  ILE185      0.1595
     63  C        -10.7560   14.4290   68.4370 C.2   185  ILE185      0.2287
     64  O        -11.2500   15.3630   67.7950 O.2   185  ILE185     -0.2864
     65  CB       -11.8150   13.6690   70.5910 C.3   185  ILE185      0.0276
     66  CG1      -12.9050   12.7660   71.1780 C.3   185  ILE185      0.0022
     67  CG2      -12.2000   15.1300   70.8240 C.3   185  ILE185      0.0022
     68  CD1      -13.1350   12.9630   72.6630 C.3   185  ILE185      0.0001
     69  N        -11.3950   14.5370   64.6600 N.3   188  ILE188     -0.1231
     70  CA       -12.6950   15.1340   64.3610 C.3   188  ILE188      0.1692
     71  C        -12.6690   16.6510   64.5160 C.2   188  ILE188      0.2591
     72  O        -13.2210   17.3760   63.6830 O.2   188  ILE188     -0.2718
     73  CB       -13.7960   14.5260   65.2610 C.3   188  ILE188      0.0266
     74  CG1      -13.9470   13.0360   64.9340 C.3   188  ILE188      0.0019
     75  CG2      -15.1120   15.2810   65.0540 C.3   188  ILE188      0.0020
     76  CD1      -14.8420   12.2460   65.8900 C.3   188  ILE188      0.0001
     77  N        -11.9980   17.1310   65.5590 N.am  189  LYS189     -0.1980
     78  CA       -11.8880   18.5670   65.8010 C.3   189  LYS189      0.1596
     79  C        -11.0220   19.2200   64.7190 C.2   189  LYS189      0.2287
     80  O        -11.3790   20.2680   64.1730 O.2   189  LYS189     -0.2864
     81  CB       -11.2580   18.8300   67.1700 C.3   189  LYS189      0.0298
     82  CG       -12.0850   18.3860   68.3680 C.3   189  LYS189      0.0038
     83  CD       -13.3070   19.2520   68.5480 C.3   189  LYS189      0.0206
     84  CE       -14.0570   18.8950   69.8350 C.3   189  LYS189      0.1093
     85  NZ       -15.2420   19.7840   70.0000 N.3   189  LYS189     -0.1314
     86  N        -17.3740   18.2140   64.9080 N.3   194  GLY194     -0.1225
     87  CA       -17.5860   18.0100   66.3350 C.3   194  GLY194      0.1811
     88  C        -17.5800   19.2520   67.2030 C.2   194  GLY194      0.2280
     89  O        -17.3710   19.1580   68.4220 O.2   194  GLY194     -0.2866
     90  N        -20.1530   18.9660   69.9580 N.3   197  GLY197     -0.1210
     91  CA       -20.1370   17.7310   70.7200 C.3   197  GLY197      0.1956
     92  C        -19.8820   17.9630   72.1980 C.2   197  GLY197      0.2613
     93  O        -19.0890   18.8230   72.5770 O.2   197  GLY197     -0.2717
     94  N        -20.5710   17.1970   73.0350 N.am  198  SER198     -0.1938
     95  CA       -20.4070   17.2820   74.4820 C.3   198  SER198      0.2055
     96  C        -20.8940   15.9550   75.0540 C.2   198  SER198      0.2642
     97  O        -21.4670   15.1340   74.3280 O.2   198  SER198     -0.2714
     98  CB       -21.2390   18.4270   75.0640 C.3   198  SER198      0.2130
     99  OG       -22.5810   18.0280   75.2990 O.3   198  SER198     -0.2179
    100  N        -20.6630   15.7300   76.3430 N.am  199  LEU199     -0.1977
    101  CA       -21.1090   14.4890   76.9620 C.3   199  LEU199      0.1596
    102  C        -22.6230   14.4740   77.1030 C.2   199  LEU199      0.2287
    103  O        -23.2030   13.4940   77.5510 O.2   199  LEU199     -0.2864
    104  CB       -20.4500   14.2990   78.3350 C.3   199  LEU199      0.0297
    105  CG       -18.9260   14.1770   78.3390 C.3   199  LEU199      0.0022
    106  CD1      -18.4300   14.0290   79.7760 C.3   199  LEU199      0.0001
    107  CD2      -18.5000   12.9780   77.4930 C.3   199  LEU199      0.0001
    108  N        -23.1550   13.1350   73.1910 N.3   202  THR202     -0.1218
    109  CA       -22.2490   12.1170   72.6630 C.3   202  THR202      0.1862
    110  C        -21.7290   11.1890   73.7550 C.2   202  THR202      0.2287
    111  O        -21.3160   11.6430   74.8310 O.2   202  THR202     -0.2866
    112  CB       -20.9860   12.7430   71.9860 C.3   202  THR202      0.1770
    113  OG1      -21.3860   13.7020   70.9990 O.3   202  THR202     -0.2211
    114  CG2      -20.1390   11.6570   71.3120 C.3   202  THR202      0.0375
    115  N        -18.8720    9.2010   74.9620 N.3   204  VAL204     -0.1245
    116  CA       -17.4470    9.1290   74.6850 C.3   204  VAL204      0.1561
    117  C        -16.8410    7.9310   75.4010 C.2   204  VAL204      0.2260
    118  O        -16.9150    7.8230   76.6190 O.2   204  VAL204     -0.2867
    119  CB       -16.7330   10.4250   75.1180 C.3   204  VAL204      0.0252
    120  CG1      -15.2500   10.3410   74.7660 C.3   204  VAL204      0.0019
    121  CG2      -17.3820   11.6220   74.4220 C.3   204  VAL204      0.0019
    122  N        -25.6850    2.3920   65.5590 N.3   226  LYS226     -0.1245
    123  CA       -25.2490    2.1470   64.1920 C.3   226  LYS226      0.1561
    124  C        -26.4200    1.6460   63.3540 C.2   226  LYS226      0.2260
    125  O        -26.5520    2.0050   62.1820 O.2   226  LYS226     -0.2867
    126  CB       -24.1050    1.1310   64.1780 C.3   226  LYS226      0.0271
    127  CG       -22.7390    1.7310   64.5430 C.3   226  LYS226      0.0035
    128  CD       -22.1910    2.5750   63.3990 C.3   226  LYS226      0.0206
    129  CE       -20.7560    2.9960   63.6620 C.3   226  LYS226      0.1093
    130  NZ       -20.1530    3.6990   62.4850 N.3   226  LYS226     -0.1314
    131  N        -21.5830    5.6080   57.5430 N.3   252  HIS252     -0.1241
    132  CA       -22.3220    6.3880   56.5480 C.3   252  HIS252      0.1621
    133  C        -21.8180    6.2190   55.1080 C.2   252  HIS252      0.2264
    134  O        -22.6070    6.0450   54.1750 O.2   252  HIS252     -0.2867
    135  CB       -22.3100    7.8730   56.9220 C.3   252  HIS252      0.0745
    136  CG       -23.0580    8.1850   58.1840 C.ar  252  HIS252      0.0817
    137  ND1      -24.3640    7.7900   58.3940 N.ar  252  HIS252     -0.2268
    138  CD2      -22.6860    8.8610   59.2970 C.ar  252  HIS252      0.1154
    139  CE1      -24.7620    8.2100   59.5820 C.ar  252  HIS252      0.1986
    140  NE2      -23.7630    8.8610   60.1510 N.ar  252  HIS252     -0.2212
@<TRIPOS>BOND
     1   134   133    2
     2   133   132    1
     3   132   135    1
     4   132   131    1
     5   135   136    1
     6   136   137   ar
     7   136   138   ar
     8   137   139   ar
     9    19    20    1
    10   138   140   ar
    11   139   140   ar
    12    26    28   ar
    13    26    24   ar
    14    20    21    1
    15    20    23    1
    16    21    22    2
    17    28    27   ar
    18    23    24    1
    19    24    25   ar
    20    27    25   ar
    21    16    18   ar
    22    16    14   ar
    23   125   124    2
    24   130   129    1
    25    18    17   ar
    26    13    14    1
    27    13    10    1
    28    14    15   ar
    29    17    15   ar
    30   124   123    1
    31   128   129    1
    32   128   127    1
    33    72    71    2
    34    11    10    1
    35    11    12    2
    36    10     9    1
    37    80    79    2
    38   126   123    1
    39   126   127    1
    40   123   122    1
    41    70    71    1
    42    70    69    1
    43    70    73    1
    44    71    77   am
    45    79    78    1
    46     9     3   am
    47    86    87    1
    48    74    73    1
    49    74    76    1
    50    75    73    1
    51     7     5    1
    52    77    78    1
    53    60    58   ar
    54    78    81    1
    55     3     4    2
    56     3     2    1
    57     1     2    1
    58    87    88    1
    59    58    57    1
    60    58    59   ar
    61    55    54    2
    62     2     5    1
    63     5     6    1
    64    57    56    1
    65    56    53    1
    66    81    82    1
    67    88    89    2
    68    46    45   ar
    69    46    44   ar
    70    53    54    1
    71    53    52    1
    72    54    61   am
    73    45    43   ar
    74    34    33    1
    75    64    63    2
    76    35    33    1
    77     6     8    1
    78    44    42   ar
    79    39    38    2
    80    82    83    1
    81    63    62    1
    82    83    84    1
    83    33    30    1
    84    43    41   ar
    85    61    62    1
    86    30    29    1
    87    30    31    1
    88    62    65    1
    89    42    41   ar
    90    51    48    1
    91    36    31   am
    92    36    37    1
    93    38    47   am
    94    38    37    1
    95    41    40    1
    96    48    47    1
    97    48    49    1
    98    84    85    1
    99    90    91    1
   100    31    32    2
   101    37    40    1
   102    49    50    2
   103    65    67    1
   104    65    66    1
   105    91    92    1
   106   113   112    1
   107    66    68    1
   108   114   112    1
   109   112   109    1
   110    92    93    2
   111    92    94   am
   112   109   108    1
   113   109   110    1
   114    94    95    1
   115   110   111    2
   116    97    96    2
   117   121   119    1
   118    95    96    1
   119    95    98    1
   120   116   115    1
   121   116   119    1
   122   116   117    1
   123   120   119    1
   124    96   100   am
   125    98    99    1
   126   117   118    2
   127   100   101    1
   128   101   102    1
   129   101   104    1
   130   102   103    2
   131   107   105    1
   132   104   105    1
   133   105   106    1
