@<TRIPOS>MOLECULE
tmp/2goyB00.pdb
 191 185 0 0 0
SMALL
GASTEIGER

@<TRIPOS>ATOM
      1  N         36.6680   65.6210   59.8680 N.3    34  SER34      -0.1202
      2  CA        35.2770   65.3970   59.5190 C.3    34  SER34       0.2020
      3  C         35.2540   65.0390   58.0360 C.2    34  SER34       0.2619
      4  O         35.6650   65.8440   57.2070 O.2    34  SER34      -0.2717
      5  CB        34.4760   66.6720   59.7830 C.3    34  SER34       0.2103
      6  OG        33.0890   66.4050   59.8170 O.3    34  SER34      -0.2182
      7  N         34.7920   63.8310   57.7050 N.am   35  PHE35      -0.1961
      8  CA        34.7360   63.3720   56.3090 C.3    35  PHE35       0.1771
      9  C         33.2960   63.1280   55.8110 C.2    35  PHE35       0.2620
     10  O         32.6180   62.2100   56.2890 O.2    35  PHE35      -0.2715
     11  CB        35.5500   62.0900   56.1740 C.3    35  PHE35       0.0574
     12  CG        35.4890   61.4780   54.8140 C.ar   35  PHE35      -0.0200
     13  CD1       35.4490   60.0970   54.6680 C.ar   35  PHE35      -0.0042
     14  CD2       35.4760   62.2760   53.6770 C.ar   35  PHE35      -0.0042
     15  CE1       35.3960   59.5160   53.4110 C.ar   35  PHE35      -0.0003
     16  CE2       35.4230   61.7070   52.4080 C.ar   35  PHE35      -0.0003
     17  CZ        35.3820   60.3210   52.2750 C.ar   35  PHE35      -0.0000
     18  N         32.8470   63.9250   54.8350 N.am   36  SER36      -0.1950
     19  CA        31.4790   63.8080   54.3110 C.3    36  SER36       0.1924
     20  C         31.2750   62.9630   53.0620 C.2    36  SER36       0.2314
     21  O         30.2260   63.0530   52.4340 O.2    36  SER36      -0.2863
     22  CB        30.8850   65.1980   54.0330 C.3    36  SER36       0.2116
     23  OG        31.2980   65.7260   52.7780 O.3    36  SER36      -0.2180
     24  N         32.4740   63.3660   50.2250 N.3    38  ALA38      -0.1231
     25  CA        32.4390   64.2120   49.0300 C.3    38  ALA38       0.1694
     26  C         33.8370   64.6200   48.5640 C.2    38  ALA38       0.2592
     27  O         34.8080   63.9020   48.7900 O.2    38  ALA38      -0.2718
     28  CB        31.6000   65.4500   49.2930 C.3    38  ALA38       0.0304
     29  N         33.9420   65.7760   47.9130 N.am   39  GLU39      -0.1966
     30  CA        35.2380   66.2340   47.4210 C.3    39  GLU39       0.1733
     31  C         36.1830   66.5880   48.5720 C.2    39  GLU39       0.2616
     32  O         37.3640   66.8780   48.3550 O.2    39  GLU39      -0.2715
     33  CB        35.0690   67.4350   46.4740 C.3    39  GLU39       0.0429
     34  CG        34.9240   68.7840   47.1470 C.3    39  GLU39       0.1163
     35  CD        33.6550   68.9130   47.9620 C.2    39  GLU39       0.3649
     36  OE1       33.4860   68.1350   48.9280 O.co2  39  GLU39      -0.2457
     37  OE2       32.8310   69.8010   47.6370 O.co2  39  GLU39      -0.2457
     38  N         35.6660   66.5560   49.7970 N.am   40  ASP40      -0.1971
     39  CA        36.4900   66.8530   50.9620 C.3    40  ASP40       0.1709
     40  C         37.4970   65.7240   51.1530 C.2    40  ASP40       0.2293
     41  O         38.3320   65.7720   52.0600 O.2    40  ASP40      -0.2864
     42  CB        35.6260   67.0240   52.2180 C.3    40  ASP40       0.1436
     43  CG        34.7190   65.8330   52.4780 C.2    40  ASP40       0.3671
     44  OD1       34.0520   65.3810   51.5290 O.co2  40  ASP40      -0.2456
     45  OD2       34.6580   65.3520   53.6300 O.co2  40  ASP40      -0.2456
     46  N         35.9790   60.9000   61.2490 N.3    57  PHE57      -0.1227
     47  CA        34.6100   60.4270   61.4260 C.3    57  PHE57       0.1736
     48  C         33.7050   60.9690   60.3240 C.2    57  PHE57       0.2596
     49  O         34.0220   61.9680   59.6700 O.2    57  PHE57      -0.2718
     50  CB        34.0500   60.8630   62.7880 C.3    57  PHE57       0.0547
     51  CG        33.7650   62.3390   62.8850 C.ar   57  PHE57      -0.0202
     52  CD1       34.8040   63.2590   63.0320 C.ar   57  PHE57      -0.0042
     53  CD2       32.4630   62.8140   62.8020 C.ar   57  PHE57      -0.0042
     54  CE1       34.5500   64.6340   63.0930 C.ar   57  PHE57      -0.0003
     55  CE2       32.2010   64.1850   62.8610 C.ar   57  PHE57      -0.0003
     56  CZ        33.2490   65.0960   63.0070 C.ar   57  PHE57      -0.0000
     57  N         32.5740   60.3010   60.1290 N.am   58  SER58      -0.1938
     58  CA        31.6030   60.7060   59.1260 C.3    58  SER58       0.2055
     59  C         30.2230   60.5460   59.7410 C.2    58  SER58       0.2642
     60  O         29.9550   59.5580   60.4260 O.2    58  SER58      -0.2714
     61  CB        31.7190   59.8180   57.8860 C.3    58  SER58       0.2130
     62  OG        33.0560   59.7570   57.4190 O.3    58  SER58      -0.2179
     63  N         29.3530   61.5190   59.5050 N.am   59  LEU59      -0.1977
     64  CA        28.0020   61.4730   60.0370 C.3    59  LEU59       0.1596
     65  C         27.0860   60.7810   59.0340 C.2    59  LEU59       0.2287
     66  O         26.7810   61.3260   57.9690 O.2    59  LEU59      -0.2864
     67  CB        27.5020   62.8880   60.3110 C.3    59  LEU59       0.0297
     68  CG        28.4410   63.7340   61.1730 C.3    59  LEU59       0.0022
     69  CD1       27.9450   65.1620   61.2130 C.3    59  LEU59       0.0001
     70  CD2       28.5260   63.1510   62.5730 C.3    59  LEU59       0.0001
     71  N         23.7200   59.9720   58.2430 N.3    61  THR61      -0.1218
     72  CA        22.3480   60.3810   58.5210 C.3    61  THR61       0.1862
     73  C         21.3370   59.2770   58.2940 C.2    61  THR61       0.2287
     74  O         20.1560   59.4510   58.5900 O.2    61  THR61      -0.2866
     75  CB        21.9180   61.5220   57.6160 C.3    61  THR61       0.1770
     76  OG1       21.9730   61.0700   56.2580 O.3    61  THR61      -0.2211
     77  CG2       22.8210   62.7340   57.7990 C.3    61  THR61       0.0375
     78  N         22.0960   58.5390   53.1250 N.3    64  LEU64      -0.1245
     79  CA        23.1400   58.9010   52.1720 C.3    64  LEU64       0.1561
     80  C         22.9940   58.0990   50.8750 C.2    64  LEU64       0.2260
     81  O         22.4640   56.9860   50.8870 O.2    64  LEU64      -0.2867
     82  CB        24.5190   58.6240   52.7820 C.3    64  LEU64       0.0270
     83  CG        24.8060   59.1880   54.1770 C.3    64  LEU64       0.0019
     84  CD1       26.0690   58.5480   54.7260 C.3    64  LEU64       0.0001
     85  CD2       24.9350   60.7040   54.1110 C.3    64  LEU64       0.0001
     86  N         21.9450   64.6570   61.5460 N.3   118  LYS118     -0.1245
     87  CA        23.2890   65.1720   61.3400 C.3   118  LYS118      0.1561
     88  C         23.8850   65.9380   62.5240 C.2   118  LYS118      0.2260
     89  O         24.8680   65.4980   63.1240 O.2   118  LYS118     -0.2867
     90  CB        23.2940   66.0570   60.0870 C.3   118  LYS118      0.0271
     91  CG        24.6520   66.2430   59.4170 C.3   118  LYS118      0.0035
     92  CD        24.5430   67.1350   58.1850 C.3   118  LYS118      0.0206
     93  CE        24.0170   68.5140   58.5660 C.3   118  LYS118      0.1093
     94  NZ        23.8210   69.4020   57.3880 N.3   118  LYS118     -0.1314
     95  N         38.9460   70.0460   65.7410 N.3   132  TRP132     -0.1241
     96  CA        38.6000   69.2330   64.5840 C.3   132  TRP132      0.1605
     97  C         38.6940   70.0750   63.3170 C.2   132  TRP132      0.2264
     98  O         38.6350   71.3050   63.3740 O.2   132  TRP132     -0.2867
     99  CB        37.1890   68.6560   64.7430 C.3   132  TRP132      0.0550
    100  CG        36.0820   69.6610   64.6030 C.ar  132  TRP132      0.0003
    101  CD1       36.0010   70.8770   65.2070 C.ar  132  TRP132      0.0946
    102  CD2       34.8920   69.5270   63.8120 C.ar  132  TRP132      0.0152
    103  NE1       34.8370   71.5140   64.8440 N.ar  132  TRP132     -0.2442
    104  CE2       34.1370   70.7080   63.9880 C.ar  132  TRP132      0.0810
    105  CE3       34.3890   68.5230   62.9710 C.ar  132  TRP132      0.0012
    106  CZ2       32.9100   70.9150   63.3550 C.ar  132  TRP132      0.0191
    107  CZ3       33.1660   68.7300   62.3430 C.ar  132  TRP132      0.0001
    108  CH2       32.4430   69.9180   62.5390 C.ar  132  TRP132      0.0015
    109  N         37.4190   70.4920   59.0680 N.3   134  THR134     -0.1203
    110  CA        36.4590   70.1520   58.0250 C.3   134  THR134      0.1994
    111  C         36.9610   70.7510   56.7220 C.2   134  THR134      0.2618
    112  O         37.7380   71.7050   56.7300 O.2   134  THR134     -0.2717
    113  CB        35.0640   70.7450   58.2980 C.3   134  THR134      0.1784
    114  OG1       34.9790   72.0560   57.7220 O.3   134  THR134     -0.2211
    115  CG2       34.8030   70.8310   59.7970 C.3   134  THR134      0.0376
    116  N         36.5050   70.1960   55.6050 N.am  135  GLY135     -0.1942
    117  CA        36.9280   70.6890   54.3070 C.3   135  GLY135      0.2014
    118  C         36.0700   71.8090   53.7460 C.2   135  GLY135      0.2638
    119  O         36.0310   72.0210   52.5350 O.2   135  GLY135     -0.2714
    120  N         35.3810   72.5370   54.6160 N.am  136  GLN136     -0.1977
    121  CA        34.5480   73.6400   54.1530 C.3   136  GLN136      0.1601
    122  C         35.4150   74.5810   53.3200 C.2   136  GLN136      0.2287
    123  O         36.5490   74.8660   53.6870 O.2   136  GLN136     -0.2864
    124  CB        33.9590   74.3970   55.3440 C.3   136  GLN136      0.0394
    125  CG        32.8870   75.3870   54.9410 C.3   136  GLN136      0.0908
    126  CD        32.1970   76.0250   56.1260 C.2   136  GLN136      0.2608
    127  OE1       31.6230   75.3410   56.9730 O.2   136  GLN136     -0.2717
    128  NE2       32.2440   77.3480   56.1880 N.am  136  GLN136     -0.0878
    129  N         32.8930   77.3870   47.9060 N.3   140  GLN140     -0.1245
    130  CA        31.8330   76.4020   47.8800 C.3   140  GLN140      0.1566
    131  C         30.5550   77.0000   48.4530 C.2   140  GLN140      0.2260
    132  O         29.5480   76.3150   48.6190 O.2   140  GLN140     -0.2867
    133  CB        32.2860   75.1380   48.6240 C.3   140  GLN140      0.0367
    134  CG        31.6780   74.8620   49.9790 C.3   140  GLN140      0.0905
    135  CD        32.1930   73.5500   50.5520 C.2   140  GLN140      0.2608
    136  OE1       32.3800   72.5750   49.8200 O.2   140  GLN140     -0.2717
    137  NE2       32.4160   73.5170   51.8640 N.am  140  GLN140     -0.0878
    138  N         28.4280   69.2390   44.6890 N.3   199  SER199     -0.1202
    139  CA        28.2430   69.2700   46.1370 C.3   199  SER199      0.2020
    140  C         27.3740   68.0610   46.5090 C.2   199  SER199      0.2619
    141  O         26.3140   67.8500   45.9190 O.2   199  SER199     -0.2717
    142  CB        27.5440   70.5650   46.5560 C.3   199  SER199      0.2103
    143  OG        27.3640   70.6120   47.9640 O.3   199  SER199     -0.2182
    144  N         27.8120   67.2740   47.4870 N.am  200  ILE200     -0.1965
    145  CA        27.0740   66.0780   47.8760 C.3   200  ILE200      0.1727
    146  C         26.5930   66.0070   49.3220 C.2   200  ILE200      0.2616
    147  O         27.3990   65.9850   50.2580 O.2   200  ILE200     -0.2715
    148  CB        27.9160   64.8080   47.6090 C.3   200  ILE200      0.0290
    149  CG1       28.2120   64.6850   46.1170 C.3   200  ILE200      0.0022
    150  CG2       27.1780   63.5730   48.0990 C.3   200  ILE200      0.0023
    151  CD1       29.0840   63.4980   45.7720 C.3   200  ILE200      0.0001
    152  N         25.2750   65.9430   49.4900 N.am  201  GLY201     -0.1955
    153  CA        24.6870   65.8230   50.8130 C.3   201  GLY201      0.1869
    154  C         23.9300   64.5080   50.8550 C.2   201  GLY201      0.2309
    155  O         24.3250   63.5470   50.1920 O.2   201  GLY201     -0.2863
    156  N         26.0080   75.1550   45.0900 N.3   216  ARG216     -0.1245
    157  CA        25.1550   75.1960   46.2690 C.3   216  ARG216      0.1563
    158  C         23.6890   75.0070   45.8840 C.2   216  ARG216      0.2260
    159  O         22.8570   74.6420   46.7160 O.2   216  ARG216     -0.2867
    160  CB        25.3430   76.5280   47.0100 C.3   216  ARG216      0.0307
    161  CG        24.6440   76.6210   48.3770 C.3   216  ARG216      0.0489
    162  CD        25.0040   75.4520   49.3020 C.3   216  ARG216      0.2205
    163  NE        26.4280   75.1100   49.2560 N.pl3 216  ARG216     -0.0865
    164  CZ        27.0070   74.1920   50.0290 C.cat 216  ARG216      0.5346
    165  NH1       28.3090   73.9460   49.9120 N.pl3 216  ARG216      0.1354
    166  NH2       26.2900   73.5270   50.9280 N.pl3 216  ARG216      0.1354
    167  N         21.6870   71.6990   46.5850 N.3   219  ARG219     -0.1231
    168  CA        21.4150   71.3410   47.9760 C.3   219  ARG219      0.1694
    169  C         20.2030   72.0930   48.5050 C.2   219  ARG219      0.2592
    170  O         20.1790   73.3230   48.4900 O.2   219  ARG219     -0.2718
    171  CB        22.6300   71.6810   48.8360 C.3   219  ARG219      0.0321
    172  CG        23.9190   71.0550   48.3470 C.3   219  ARG219      0.0489
    173  CD        23.8910   69.5700   48.5970 C.3   219  ARG219      0.2205
    174  NE        23.7820   69.2930   50.0250 N.pl3 219  ARG219     -0.0865
    175  CZ        24.7600   69.4990   50.9030 C.cat 219  ARG219      0.5346
    176  NH1       24.5700   69.2240   52.1840 N.pl3 219  ARG219      0.1354
    177  NH2       25.9350   69.9630   50.5030 N.pl3 219  ARG219      0.1354
    178  N         19.2040   71.3560   48.9810 N.am  220  TRP220     -0.1976
    179  CA        17.9910   71.9740   49.5110 C.3   220  TRP220      0.1640
    180  C         17.4940   73.0460   48.5500 C.2   220  TRP220      0.2290
    181  O         17.1820   74.1650   48.9560 O.2   220  TRP220     -0.2864
    182  CB        18.2840   72.6030   50.8700 C.3   220  TRP220      0.0576
    183  CG        18.8910   71.6440   51.8280 C.ar  220  TRP220      0.0006
    184  CD1       18.3480   70.4790   52.2740 C.ar  220  TRP220      0.0946
    185  CD2       20.1670   71.7620   52.4590 C.ar  220  TRP220      0.0152
    186  NE1       19.2070   69.8560   53.1500 N.ar  220  TRP220     -0.2442
    187  CE2       20.3330   70.6240   53.2800 C.ar  220  TRP220      0.0810
    188  CE3       21.1880   72.7170   52.4110 C.ar  220  TRP220      0.0012
    189  CZ2       21.4790   70.4150   54.0490 C.ar  220  TRP220      0.0191
    190  CZ3       22.3270   72.5110   53.1720 C.ar  220  TRP220      0.0001
    191  CH2       22.4640   71.3670   53.9830 C.ar  220  TRP220      0.0015
@<TRIPOS>BOND
     1   138   139    1
     2   156   157    1
     3   151   149    1
     4   158   157    1
     5   158   159    2
     6   141   140    2
     7   149   148    1
     8   139   140    1
     9   139   142    1
    10   157   160    1
    11    33    34    1
    12    33    30    1
    13   140   144   am
    14   142   143    1
    15   167   168    1
    16   160   161    1
    17    34    35    1
    18    30    29    1
    19    30    31    1
    20   144   145    1
    21   148   145    1
    22   148   150    1
    23    37    35   ar
    24   145   146    1
    25   130   129    1
    26   130   131    1
    27   130   133    1
    28    29    26   am
    29    35    36   ar
    30   168   169    1
    31   168   171    1
    32   172   173    1
    33   172   171    1
    34    32    31    2
    35   161   162    1
    36   131   132    2
    37   170   169    2
    38   169   178   am
    39   180   181    2
    40   180   179    1
    41    26    27    2
    42    26    25    1
    43    31    38   am
    44   173   174    1
    45   133   134    1
    46   178   179    1
    47    25    28    1
    48    25    24    1
    49   163   162    1
    50   163   164    2
    51   146   152   am
    52   146   147    2
    53   152   153    1
    54   179   182    1
    55    38    39    1
    56   136   135    2
    57   165   164    1
    58   134   135    1
    59   174   175    2
    60   164   166    1
    61   155   154    2
    62   177   175    1
    63   135   137   am
    64   153   154    1
    65   182   183    1
    66    80    81    2
    67    80    79    1
    68   175   176    1
    69    39    40    1
    70    39    42    1
    71    40    41    2
    72    44    43   ar
    73   183   184   ar
    74   183   185   ar
    75    79    82    1
    76    79    78    1
    77    42    43    1
    78   184   186   ar
    79    17    16   ar
    80    17    15   ar
    81    16    14   ar
    82   188   185   ar
    83   188   190   ar
    84    21    20    2
    85   185   187   ar
    86    43    45   ar
    87   119   118    2
    88    23    22    1
    89    82    83    1
    90    20    19    1
    91   186   187   ar
    92   190   191   ar
    93   187   189   ar
    94   122   123    2
    95   122   121    1
    96    15    13   ar
    97    14    12   ar
    98   118   117    1
    99   118   120   am
   100   191   189   ar
   101    22    19    1
   102    85    83    1
   103   121   120    1
   104   121   124    1
   105    83    84    1
   106   117   116    1
   107    19    18    1
   108    13    12   ar
   109    12    11    1
   110    18     9   am
   111   125   124    1
   112   125   126    1
   113   116   111   am
   114     9    10    2
   115     9     8    1
   116   126   128   am
   117   126   127    2
   118    11     8    1
   119    76    75    1
   120     8     7    1
   121   111   112    2
   122   111   110    1
   123     4     3    2
   124    94    93    1
   125    62    61    1
   126    75    77    1
   127    75    72    1
   128     7     3   am
   129   114   113    1
   130    61    58    1
   131    66    65    2
   132   110   113    1
   133   110   109    1
   134     3     2    1
   135    92    93    1
   136    92    91    1
   137    71    72    1
   138    73    72    1
   139    73    74    2
   140   113   115    1
   141    65    64    1
   142    58    59    1
   143    58    57    1
   144    91    90    1
   145    63    59   am
   146    63    64    1
   147     2     5    1
   148     2     1    1
   149    49    48    2
   150    59    60    2
   151     5     6    1
   152    64    67    1
   153    90    87    1
   154    57    48   am
   155    67    68    1
   156    48    47    1
   157    68    69    1
   158    68    70    1
   159    46    47    1
   160    87    86    1
   161    87    88    1
   162    47    50    1
   163   107   108   ar
   164   107   105   ar
   165    88    89    2
   166   108   106   ar
   167    50    51    1
   168    53    55   ar
   169    53    51   ar
   170    55    56   ar
   171    51    52   ar
   172   105   102   ar
   173    56    54   ar
   174    52    54   ar
   175    97    98    2
   176    97    96    1
   177   106   104   ar
   178   102   104   ar
   179   102   100   ar
   180   104   103   ar
   181    96    99    1
   182    96    95    1
   183   100    99    1
   184   100   101   ar
   185   103   101   ar
