@<TRIPOS>MOLECULE
tmp/2gplW00.pdb
 92 88 0 0 0
SMALL
GASTEIGER

@<TRIPOS>ATOM
      1  N         18.6820 -156.3610   20.9150 N.3     2  ASP2       -0.1225
      2  CA        17.6480 -157.1670   21.5570 C.3     2  ASP2        0.1790
      3  C         17.1090 -158.1290   20.5020 C.2     2  ASP2        0.2440
      4  O         16.3710 -157.7280   19.6010 O.2     2  ASP2       -0.2733
      5  CB        16.5120 -156.2920   22.0680 C.3     2  ASP2        0.1423
      6  CG        15.3290 -157.1110   22.5630 C.2     2  ASP2        0.3668
      7  OD1       14.2820 -156.4990   22.8560 O.co2   2  ASP2       -0.2456
      8  OD2       15.4370 -158.3610   22.6610 O.co2   2  ASP2       -0.2456
      9  N         17.4610 -159.4180   20.6100 N.am    3  PRO3       -0.2718
     10  CA        17.0150 -160.4290   19.6550 C.3     3  PRO3        0.1535
     11  C         15.5330 -160.3340   19.3120 C.2     3  PRO3        0.2599
     12  O         15.1080 -160.7870   18.2510 O.2     3  PRO3       -0.2715
     13  CB        17.3630 -161.7360   20.3590 C.3     3  PRO3        0.0310
     14  CG        18.5380 -161.3780   21.1680 C.3     3  PRO3        0.0237
     15  CD        18.1310 -160.0570   21.7520 C.3     3  PRO3        0.0939
     16  N         14.7520 -159.7350   20.2030 N.am    4  SER4       -0.1950
     17  CA        13.3170 -159.6130   19.9930 C.3     4  SER4        0.1924
     18  C         12.8600 -158.4170   19.1610 C.2     4  SER4        0.2314
     19  O         11.6980 -158.3450   18.7700 O.2     4  SER4       -0.2863
     20  CB        12.6120 -159.5830   21.3440 C.3     4  SER4        0.2116
     21  OG        12.7840 -160.8180   22.0130 O.3     4  SER4       -0.2180
     22  N         17.2620 -173.1980   29.1730 N.3    98  ARG98      -0.1245
     23  CA        17.1660 -172.1510   30.1810 C.3    98  ARG98       0.1563
     24  C         18.2820 -171.1160   30.1810 C.2    98  ARG98       0.2260
     25  O         18.0290 -169.9330   30.3730 O.2    98  ARG98      -0.2867
     26  CB        17.0720 -172.7640   31.5790 C.3    98  ARG98       0.0307
     27  CG        17.0980 -171.7360   32.7120 C.3    98  ARG98       0.0489
     28  CD        15.8520 -170.8560   32.6850 C.3    98  ARG98       0.2205
     29  NE        15.7880 -169.9270   33.8090 N.pl3  98  ARG98      -0.0865
     30  CZ        16.5860 -168.8750   33.9600 C.cat  98  ARG98       0.5346
     31  NH1       16.4550 -168.0890   35.0230 N.pl3  98  ARG98       0.1354
     32  NH2       17.5080 -168.6040   33.0460 N.pl3  98  ARG98       0.1354
     33  N         14.9730 -166.9530   21.4820 N.3   103  PHE103     -0.1227
     34  CA        14.3210 -165.6750   21.7380 C.3   103  PHE103      0.1736
     35  C         12.9860 -165.6370   21.0140 C.2   103  PHE103      0.2595
     36  O         12.8710 -165.0570   19.9370 O.2   103  PHE103     -0.2718
     37  CB        15.2360 -164.5520   21.2760 C.3   103  PHE103      0.0547
     38  CG        16.5660 -164.5750   21.9490 C.ar  103  PHE103     -0.0202
     39  CD1       16.6990 -164.1170   23.2550 C.ar  103  PHE103     -0.0042
     40  CD2       17.6730 -165.1240   21.3140 C.ar  103  PHE103     -0.0042
     41  CE1       17.9130 -164.2060   23.9220 C.ar  103  PHE103     -0.0003
     42  CE2       18.8910 -165.2180   21.9720 C.ar  103  PHE103     -0.0003
     43  CZ        19.0110 -164.7590   23.2810 C.ar  103  PHE103     -0.0000
     44  N         11.9780 -166.2530   21.6190 N.am  104  VAL104     -0.1966
     45  CA        10.6720 -166.3330   21.0010 C.3   104  VAL104      0.1727
     46  C          9.5190 -166.1290   21.9810 C.2   104  VAL104      0.2616
     47  O          9.7080 -166.1200   23.2000 O.2   104  VAL104     -0.2715
     48  CB        10.4980 -167.7040   20.3240 C.3   104  VAL104      0.0290
     49  CG1       11.6290 -167.9470   19.3230 C.3   104  VAL104      0.0023
     50  CG2       10.4880 -168.8000   21.3740 C.3   104  VAL104      0.0023
     51  N          8.3240 -165.9560   21.4300 N.am  105  GLY105     -0.1955
     52  CA         7.1380 -165.7670   22.2420 C.3   105  GLY105      0.1869
     53  C          6.0540 -166.6550   21.6670 C.2   105  GLY105      0.2309
     54  O          5.2340 -166.1990   20.8810 O.2   105  GLY105     -0.2863
     55  N          6.7400 -167.5680   27.9360 N.3   124  ASP124     -0.1225
     56  CA         7.8130 -166.5840   27.8930 C.3   124  ASP124      0.1805
     57  C          8.9780 -167.3610   27.2440 C.2   124  ASP124      0.2598
     58  O          8.8430 -168.5620   26.9910 O.2   124  ASP124     -0.2718
     59  CB         8.1390 -166.0400   29.2950 C.3   124  ASP124      0.1424
     60  CG         8.8000 -167.0640   30.2160 C.2   124  ASP124      0.3668
     61  OD1        9.1070 -166.6740   31.3650 O.co2 124  ASP124     -0.2456
     62  OD2        9.0220 -168.2340   29.8180 O.co2 124  ASP124     -0.2456
     63  N         10.1050 -166.7150   26.9600 N.am  125  LEU125     -0.1966
     64  CA        11.1830 -167.4180   26.2670 C.3   125  LEU125      0.1728
     65  C         11.7820 -168.6520   26.9530 C.2   125  LEU125      0.2616
     66  O         12.4630 -169.4500   26.2980 O.2   125  LEU125     -0.2715
     67  CB        12.3040 -166.4400   25.8740 C.3   125  LEU125      0.0311
     68  CG        13.3620 -166.0240   26.9020 C.3   125  LEU125      0.0022
     69  CD1       14.4450 -165.2050   26.2260 C.3   125  LEU125      0.0001
     70  CD2       12.7100 -165.2440   28.0250 C.3   125  LEU125      0.0001
     71  N         11.5420 -168.8310   28.2520 N.am  126  ILE126     -0.1977
     72  CA        12.0940 -170.0050   28.9160 C.3   126  ILE126      0.1596
     73  C         11.0370 -171.0110   29.3460 C.2   126  ILE126      0.2287
     74  O         11.2920 -171.8820   30.1760 O.2   126  ILE126     -0.2864
     75  CB        13.0050 -169.6420   30.1330 C.3   126  ILE126      0.0276
     76  CG1       12.2020 -168.9080   31.2020 C.3   126  ILE126      0.0022
     77  CG2       14.2270 -168.8720   29.6550 C.3   126  ILE126      0.0022
     78  CD1       12.9690 -167.8290   31.9300 C.3   126  ILE126      0.0001
     79  N          7.7320 -170.4410   30.7680 N.3   128  CYS128     -0.1235
     80  CA         6.6400 -170.1530   31.6860 C.3   128  CYS128      0.1677
     81  C          5.3050 -170.1210   30.9260 C.2   128  CYS128      0.2270
     82  O          5.1250 -169.3430   29.9820 O.2   128  CYS128     -0.2867
     83  CB         6.8710 -168.8250   32.3950 C.3   128  CYS128      0.0956
     84  SG         5.7310 -168.5950   33.7780 S.3   128  CYS128     -0.0801
     85  N          1.4220 -169.3190   30.3750 N.3   130  ASP130     -0.1239
     86  CA         0.3490 -168.4080   30.7520 C.3   130  ASP130      0.1674
     87  C         -0.8900 -169.0070   30.1060 C.2   130  ASP130      0.2266
     88  O         -0.9760 -169.0810   28.8790 O.2   130  ASP130     -0.2867
     89  CB         0.5850 -167.0080   30.1880 C.3   130  ASP130      0.1410
     90  CG        -0.6630 -166.1290   30.2750 C.2   130  ASP130      0.3668
     91  OD1       -0.5970 -164.9650   29.8170 O.co2 130  ASP130     -0.2456
     92  OD2       -1.7090 -166.5970   30.7990 O.co2 130  ASP130     -0.2456
@<TRIPOS>BOND
     1    12    11    2
     2    19    18    2
     3    18    17    1
     4    11    10    1
     5    11    16   am
     6    49    48    1
     7     4     3    2
     8    10    13    1
     9    10     9    1
    10    36    35    2
    11    17    16    1
    12    17    20    1
    13    48    45    1
    14    48    50    1
    15    13    14    1
    16     3     9   am
    17     3     2    1
    18     9    15    1
    19    54    53    2
    20     1     2    1
    21    45    44    1
    22    45    46    1
    23    35    44   am
    24    35    34    1
    25    14    15    1
    26    37    34    1
    27    37    38    1
    28    40    38   ar
    29    40    42   ar
    30    20    21    1
    31    51    46   am
    32    51    52    1
    33    33    34    1
    34     2     5    1
    35    53    52    1
    36    38    39   ar
    37    42    43   ar
    38    46    47    2
    39     5     6    1
    40     6     8   ar
    41     6     7   ar
    42    39    41   ar
    43    43    41   ar
    44    67    64    1
    45    67    68    1
    46    69    68    1
    47    64    65    1
    48    64    63    1
    49    66    65    2
    50    68    70    1
    51    65    71   am
    52    63    57   am
    53    58    57    2
    54    57    56    1
    55    56    55    1
    56    56    59    1
    57    71    72    1
    58    88    87    2
    59    72    73    1
    60    72    75    1
    61    22    23    1
    62    59    60    1
    63    73    74    2
    64    77    75    1
    65    91    90   ar
    66    62    60   ar
    67    82    81    2
    68    87    86    1
    69    75    76    1
    70    23    24    1
    71    23    26    1
    72    24    25    2
    73    89    90    1
    74    89    86    1
    75    60    61   ar
    76    90    92   ar
    77    85    86    1
    78    79    80    1
    79    81    80    1
    80    76    78    1
    81    26    27    1
    82    80    83    1
    83    83    84    1
    84    28    27    1
    85    28    29    1
    86    32    30    1
    87    29    30    2
    88    30    31    1
