@<TRIPOS>MOLECULE
tmp/2gplH00.pdb
 141 134 0 0 0
SMALL
GASTEIGER

@<TRIPOS>ATOM
      1  N         64.7920 -139.7780   44.6910 N.3     1  THR1       -0.1218
      2  CA        65.3470 -138.6580   45.4990 C.3     1  THR1        0.1862
      3  C         65.4020 -139.0020   46.9880 C.2     1  THR1        0.2287
      4  O         64.5230 -139.7000   47.5150 O.2     1  THR1       -0.2866
      5  CB        64.4880 -137.3630   45.3350 C.3     1  THR1        0.1770
      6  OG1       64.8560 -136.6720   44.1310 O.3     1  THR1       -0.2211
      7  CG2       64.6700 -136.4370   46.5230 C.3     1  THR1        0.0375
      8  N         70.5670 -136.8390   41.9180 N.3    19  ARG19      -0.1231
      9  CA        70.0430 -137.5150   40.7350 C.3    19  ARG19       0.1694
     10  C         68.6460 -137.0250   40.3560 C.2    19  ARG19       0.2593
     11  O         67.7200 -137.0370   41.1700 O.2    19  ARG19      -0.2718
     12  CB        69.9930 -139.0320   40.9490 C.3    19  ARG19       0.0321
     13  CG        69.2750 -139.7970   39.8380 C.3    19  ARG19       0.0489
     14  CD        69.3240 -141.3030   40.0660 C.3    19  ARG19       0.2205
     15  NE        70.6710 -141.8370   39.8880 N.pl3  19  ARG19      -0.0865
     16  CZ        71.0040 -143.1090   40.0710 C.cat  19  ARG19       0.5346
     17  NH1       70.0950 -144.0000   40.4450 N.pl3  19  ARG19       0.1354
     18  NH2       72.2480 -143.4950   39.8640 N.pl3  19  ARG19       0.1354
     19  N         68.5230 -136.5830   39.1100 N.am   20  SER20      -0.1938
     20  CA        67.2660 -136.1230   38.5540 C.3    20  SER20       0.2055
     21  C         66.9000 -137.1900   37.5220 C.2    20  SER20       0.2644
     22  O         67.7520 -137.6510   36.7700 O.2    20  SER20      -0.2714
     23  CB        67.4520 -134.7750   37.8690 C.3    20  SER20       0.2130
     24  OG        66.2600 -134.3840   37.2150 O.3    20  SER20      -0.2179
     25  N         65.6440 -137.6010   37.4810 N.am   21  THR21      -0.1936
     26  CA        65.2760 -138.6330   36.5280 C.3    21  THR21       0.2028
     27  C         63.9290 -138.4420   35.8840 C.2    21  THR21       0.2642
     28  O         63.0900 -137.6700   36.3510 O.2    21  THR21      -0.2714
     29  CB        65.2180 -140.0220   37.1890 C.3    21  THR21       0.1808
     30  OG1       64.2090 -140.0190   38.2060 O.3    21  THR21      -0.2208
     31  CG2       66.5550 -140.3950   37.7950 C.3    21  THR21       0.0379
     32  N         63.7340 -139.1600   34.7900 N.am   22  GLN22      -0.1963
     33  CA        62.4560 -139.1590   34.1120 C.3    22  GLN22       0.1733
     34  C         62.3960 -140.5240   33.4600 C.2    22  GLN22       0.2616
     35  O         63.1580 -140.8450   32.5470 O.2    22  GLN22      -0.2715
     36  CB        62.3420 -137.9740   33.1480 C.3    22  GLN22       0.0408
     37  CG        62.6710 -138.1500   31.6970 C.3    22  GLN22       0.0908
     38  CD        61.9410 -137.0890   30.8660 C.2    22  GLN22       0.2608
     39  OE1       61.9210 -135.9040   31.2310 O.2    22  GLN22      -0.2717
     40  NE2       61.3440 -137.5040   29.7510 N.am   22  GLN22      -0.0878
     41  N         61.5080 -141.3550   33.9880 N.am   23  GLY23      -0.1955
     42  CA        61.4200 -142.7130   33.5060 C.3    23  GLY23       0.1869
     43  C         62.6430 -143.3510   34.1370 C.2    23  GLY23       0.2309
     44  O         63.0530 -142.9280   35.2140 O.2    23  GLY23      -0.2863
     45  N         68.1770 -137.8870   34.0570 N.3    27  ALA27      -0.1231
     46  CA        68.1300 -136.6170   33.3420 C.3    27  ALA27       0.1694
     47  C         69.3320 -135.7460   33.7100 C.2    27  ALA27       0.2592
     48  O         70.0340 -135.2330   32.8360 O.2    27  ALA27      -0.2718
     49  CB        66.8320 -135.8830   33.6740 C.3    27  ALA27       0.0304
     50  N         69.5580 -135.5840   35.0090 N.am   28  ASP28      -0.1974
     51  CA        70.6660 -134.7770   35.4980 C.3    28  ASP28       0.1709
     52  C         71.4510 -135.5850   36.5340 C.2    28  ASP28       0.2293
     53  O         70.8780 -136.1470   37.4690 O.2    28  ASP28      -0.2864
     54  CB        70.1250 -133.4710   36.1140 C.3    28  ASP28       0.1436
     55  CG        71.2120 -132.4160   36.3240 C.2    28  ASP28       0.3671
     56  OD1       70.8600 -131.2290   36.5390 O.co2  28  ASP28      -0.2456
     57  OD2       72.4140 -132.7710   36.2780 O.co2  28  ASP28      -0.2456
     58  N         71.8670 -132.4530   39.8640 N.3    31  CYS31      -0.1235
     59  CA        70.9970 -131.2990   39.9960 C.3    31  CYS31       0.1677
     60  C         70.9070 -130.9350   41.4680 C.2    31  CYS31       0.2270
     61  O         71.0450 -131.7950   42.3290 O.2    31  CYS31      -0.2867
     62  CB        69.6060 -131.5810   39.4080 C.3    31  CYS31       0.0956
     63  SG        68.4380 -132.4290   40.4680 S.3    31  CYS31      -0.0801
     64  N         69.0190 -130.0650   44.7510 N.3    33  LYS33      -0.1245
     65  CA        67.7090 -130.2130   45.3650 C.3    33  LYS33       0.1561
     66  C         67.6190 -129.3730   46.6350 C.2    33  LYS33       0.2260
     67  O         66.6380 -129.4410   47.3690 O.2    33  LYS33      -0.2867
     68  CB        67.4440 -131.6980   45.6540 C.3    33  LYS33       0.0271
     69  CG        67.6670 -132.5700   44.4230 C.3    33  LYS33       0.0035
     70  CD        67.3510 -134.0370   44.6620 C.3    33  LYS33       0.0206
     71  CE        67.6490 -134.8710   43.4100 C.3    33  LYS33       0.1093
     72  NZ        67.4710 -136.3370   43.6290 N.3    33  LYS33      -0.1314
     73  N         67.3280 -125.7110   48.0610 N.3    35  HIS35      -0.1241
     74  CA        66.8810 -124.3850   47.6420 C.3    35  HIS35       0.1621
     75  C         66.9490 -123.3290   48.7350 C.2    35  HIS35       0.2264
     76  O         66.5710 -123.5780   49.8780 O.2    35  HIS35      -0.2867
     77  CB        65.4290 -124.4670   47.1570 C.3    35  HIS35       0.0745
     78  CG        65.1630 -125.6050   46.2200 C.ar   35  HIS35       0.0817
     79  ND1       65.4640 -125.5510   44.8760 N.ar   35  HIS35      -0.2268
     80  CD2       64.6370 -126.8330   46.4390 C.ar   35  HIS35       0.1154
     81  CE1       65.1350 -126.6960   44.3070 C.ar   35  HIS35       0.1986
     82  NE2       64.6310 -127.4910   45.2340 N.ar   35  HIS35      -0.2212
     83  N         63.9440 -130.2070   48.4070 N.3    45  GLY45      -0.1210
     84  CA        62.7250 -130.6030   47.7320 C.3    45  GLY45       0.1956
     85  C         62.7710 -131.9020   46.9570 C.2    45  GLY45       0.2612
     86  O         63.7910 -132.2420   46.3780 O.2    45  GLY45      -0.2717
     87  N         61.6500 -132.6170   46.9620 N.am   46  ALA46      -0.1965
     88  CA        61.4890 -133.8860   46.2560 C.3    46  ALA46       0.1728
     89  C         60.1360 -133.8280   45.5460 C.2    46  ALA46       0.2617
     90  O         59.2430 -133.0770   45.9620 O.2    46  ALA46      -0.2715
     91  CB        61.5050 -135.0450   47.2410 C.3    46  ALA46       0.0334
     92  N         59.9810 -134.6270   44.4910 N.am   47  GLY47      -0.1940
     93  CA        58.7390 -134.6340   43.7310 C.3    47  GLY47       0.2014
     94  C         58.9660 -134.1390   42.3100 C.2    47  GLY47       0.2640
     95  O         59.9710 -134.4720   41.6840 O.2    47  GLY47      -0.2714
     96  N         58.0380 -133.3410   41.7930 N.am   48  THR48      -0.1936
     97  CA        58.1670 -132.8070   40.4470 C.3    48  THR48       0.2028
     98  C         59.2340 -131.7080   40.5000 C.2    48  THR48       0.2642
     99  O         59.0190 -130.6380   41.0740 O.2    48  THR48      -0.2714
    100  CB        56.8110 -132.2360   39.9550 C.3    48  THR48       0.1808
    101  OG1       55.8040 -133.2560   40.0360 O.3    48  THR48      -0.2208
    102  CG2       56.9160 -131.7550   38.5170 C.3    48  THR48       0.0379
    103  N         60.3890 -131.9940   39.9050 N.am   49  ALA49      -0.1963
    104  CA        61.5240 -131.0740   39.8870 C.3    49  ALA49       0.1728
    105  C         61.2010 -129.6090   39.5750 C.2    49  ALA49       0.2616
    106  O         61.6690 -128.7090   40.2780 O.2    49  ALA49      -0.2715
    107  CB        62.5850 -131.5900   38.9200 C.3    49  ALA49       0.0334
    108  N         60.4330 -129.3520   38.5200 N.am   50  ALA50      -0.1963
    109  CA        60.0870 -127.9760   38.1830 C.3    50  ALA50       0.1728
    110  C         59.2400 -127.3720   39.3050 C.2    50  ALA50       0.2616
    111  O         59.3990 -126.2020   39.6390 O.2    50  ALA50      -0.2715
    112  CB        59.3270 -127.9230   36.8650 C.3    50  ALA50       0.0334
    113  N         58.3590 -128.1750   39.8980 N.am   51  ASP51      -0.1957
    114  CA        57.5040 -127.6910   40.9730 C.3    51  ASP51       0.1840
    115  C         58.2520 -127.3100   42.2400 C.2    51  ASP51       0.2622
    116  O         57.9780 -126.2580   42.8220 O.2    51  ASP51      -0.2715
    117  CB        56.4250 -128.7230   41.3050 C.3    51  ASP51       0.1450
    118  CG        55.2950 -128.7230   40.3020 C.2    51  ASP51       0.3671
    119  OD1       54.5020 -129.6820   40.3160 O.co2  51  ASP51      -0.2456
    120  OD2       55.2000 -127.7590   39.5090 O.co2  51  ASP51      -0.2456
    121  N         59.1880 -128.1410   42.6900 N.am   52  THR52      -0.1951
    122  CA        59.9200 -127.7930   43.9060 C.3    52  THR52       0.1897
    123  C         60.7220 -126.5190   43.6610 C.2    52  THR52       0.2313
    124  O         60.8200 -125.6640   44.5350 O.2    52  THR52      -0.2863
    125  CB        60.8990 -128.8940   44.3570 C.3    52  THR52       0.1794
    126  OG1       61.8720 -129.1080   43.3360 O.3    52  THR52      -0.2208
    127  CG2       60.1650 -130.1900   44.6550 C.3    52  THR52       0.0378
    128  N         48.2420 -130.7150   42.9450 N.3    93  HIS93      -0.1241
    129  CA        48.7340 -130.6690   41.5790 C.3    93  HIS93       0.1621
    130  C         50.1460 -130.1020   41.4580 C.2    93  HIS93       0.2264
    131  O         50.8110 -130.2860   40.4360 O.2    93  HIS93      -0.2867
    132  CB        47.7480 -129.9110   40.6970 C.3    93  HIS93       0.0745
    133  CG        46.4400 -130.6210   40.5410 C.ar   93  HIS93       0.0817
    134  ND1       46.3290 -131.8300   39.8870 N.ar   93  HIS93      -0.2268
    135  CD2       45.2130 -130.3560   41.0490 C.ar   93  HIS93       0.1154
    136  CE1       45.0930 -132.2820   40.0080 C.ar   93  HIS93       0.1986
    137  NE2       44.3960 -131.4070   40.7100 N.ar   93  HIS93      -0.2212
    138  N         53.3040 -130.9130   42.6000 N.3    95  GLY95      -0.1225
    139  CA        53.9700 -132.0170   43.2680 C.3    95  GLY95       0.1811
    140  C         55.2390 -131.6890   44.0090 C.2    95  GLY95       0.2280
    141  O         56.3130 -132.1920   43.6750 O.2    95  GLY95      -0.2866
@<TRIPOS>BOND
     1    40    38   am
     2    38    39    2
     3    38    37    1
     4    37    36    1
     5    35    34    2
     6    48    47    2
     7    36    33    1
     8    46    49    1
     9    46    47    1
    10    46    45    1
    11    34    41   am
    12    34    33    1
    13    42    41    1
    14    42    43    1
    15    47    50   am
    16    33    32    1
    17    43    44    2
    18    32    27   am
    19    50    51    1
    20    51    54    1
    21    51    52    1
    22    27    28    2
    23    27    26    1
    24    54    55    1
    25    57    55   ar
    26    55    56   ar
    27    26    29    1
    28    26    25    1
    29    52    53    2
    30    22    21    2
    31   112   109    1
    32    29    31    1
    33    29    30    1
    34    24    23    1
    35    25    21   am
    36    21    20    1
    37    23    20    1
    38   109   108    1
    39   109   110    1
    40   102   100    1
    41   108   105   am
    42    20    19    1
    43   107   104    1
    44    19    10   am
    45   110   111    2
    46   110   113   am
    47    62    59    1
    48    62    63    1
    49   120   118   ar
    50   105   104    1
    51   105   106    2
    52    13    14    1
    53    13    12    1
    54    18    16    1
    55    58    59    1
    56   134   136   ar
    57   134   133   ar
    58   104   103    1
    59    15    14    1
    60    15    16    2
    61   113   114    1
    62   103    98   am
    63   100   101    1
    64   100    97    1
    65    59    60    1
    66   136   137   ar
    67    16    17    1
    68   118   119   ar
    69   118   117    1
    70    10     9    1
    71    10    11    2
    72   131   130    2
    73    97    98    1
    74    97    96    1
    75    98    99    2
    76   133   132    1
    77   133   135   ar
    78   132   129    1
    79   137   135   ar
    80     9    12    1
    81     9     8    1
    82   114   117    1
    83   114   115    1
    84   130   129    1
    85    60    61    2
    86   129   128    1
    87    95    94    2
    88    96    94   am
    89   115   121   am
    90   115   116    2
    91    94    93    1
    92   138   139    1
    93   121   122    1
    94   139   140    1
    95   126   125    1
    96    71    72    1
    97    71    70    1
    98   123   122    1
    99   123   124    2
   100   141   140    2
   101    93    92    1
   102   122   125    1
   103     6     5    1
   104    81    79   ar
   105    81    82   ar
   106   125   127    1
   107    69    70    1
   108    69    68    1
   109    92    89   am
   110     1     2    1
   111    64    65    1
   112    79    78   ar
   113    82    80   ar
   114     5     2    1
   115     5     7    1
   116    65    68    1
   117    65    66    1
   118     2     3    1
   119    89    90    2
   120    89    88    1
   121    78    80   ar
   122    78    77    1
   123    88    87    1
   124    88    91    1
   125    86    85    2
   126    66    67    2
   127    85    87   am
   128    85    84    1
   129     3     4    2
   130    77    74    1
   131    74    73    1
   132    74    75    1
   133    84    83    1
   134    75    76    2
