@<TRIPOS>MOLECULE
tmp/2gppA00.pdb
 177 166 0 0 0
SMALL
GASTEIGER

@<TRIPOS>ATOM
      1  N        -55.4020  127.6050   -7.0370 N.3    15  GLU15      -0.1231
      2  CA       -56.0610  126.4930   -6.3990 C.3    15  GLU15       0.1699
      3  C        -57.0690  127.0040   -5.4020 C.2    15  GLU15       0.2592
      4  O        -56.9040  128.0790   -4.8200 O.2    15  GLU15      -0.2718
      5  CB       -55.0570  125.6100   -5.6950 C.3    15  GLU15       0.0402
      6  CG       -54.1020  124.9620   -6.6400 C.3    15  GLU15       0.1161
      7  CD       -53.1900  123.9940   -5.9480 C.2    15  GLU15       0.3649
      8  OE1      -53.5470  123.4850   -4.8500 O.co2  15  GLU15      -0.2457
      9  OE2      -52.1040  123.7510   -6.5100 O.co2  15  GLU15      -0.2457
     10  N        -58.1270  126.2230   -5.2440 N.am   16  LYS16      -0.1966
     11  CA       -59.0820  126.4180   -4.1830 C.3    16  LYS16       0.1728
     12  C        -59.3980  125.0550   -3.6100 C.2    16  LYS16       0.2616
     13  O        -59.5410  124.0930   -4.3330 O.2    16  LYS16      -0.2715
     14  CB       -60.3450  127.1420   -4.6870 C.3    16  LYS16       0.0311
     15  CG       -61.1240  126.4280   -5.7920 C.3    16  LYS16       0.0038
     16  CD       -62.3260  127.2870   -6.3110 C.3    16  LYS16       0.0206
     17  CE       -61.8840  128.4240   -7.2820 C.3    16  LYS16       0.1093
     18  NZ       -62.8580  129.5930   -7.3870 N.3    16  LYS16      -0.1314
     19  N        -59.4600  124.9670   -2.2990 N.am   17  ILE17      -0.1977
     20  CA       -59.9630  123.7710   -1.6710 C.3    17  ILE17       0.1596
     21  C        -60.8010  124.1650   -0.4730 C.2    17  ILE17       0.2287
     22  O        -60.5490  125.1860    0.1330 O.2    17  ILE17      -0.2864
     23  CB       -58.8130  122.8520   -1.2730 C.3    17  ILE17       0.0276
     24  CG1      -59.3180  121.4300   -1.1080 C.3    17  ILE17       0.0022
     25  CG2      -58.1120  123.3590   -0.0100 C.3    17  ILE17       0.0022
     26  CD1      -58.2190  120.4280   -0.9870 C.3    17  ILE17       0.0001
     27  N        -58.1270  117.7210    8.2040 N.3    36  LEU36      -0.1245
     28  CA       -56.8030  117.8350    7.6140 C.3    36  LEU36       0.1561
     29  C        -56.4350  116.6330    6.7410 C.2    36  LEU36       0.2260
     30  O        -55.9750  116.8010    5.6250 O.2    36  LEU36      -0.2867
     31  CB       -55.7400  118.0490    8.6980 C.3    36  LEU36       0.0270
     32  CG       -55.8420  119.3380    9.5200 C.3    36  LEU36       0.0019
     33  CD1      -54.6090  119.4990   10.3860 C.3    36  LEU36       0.0001
     34  CD2      -56.0200  120.5480    8.6520 C.3    36  LEU36       0.0001
     35  N        -58.3630  116.8540    3.5710 N.3    39  LEU39      -0.1231
     36  CA       -57.8000  117.8790    2.7230 C.3    39  LEU39       0.1693
     37  C        -56.5350  117.3970    2.0740 C.2    39  LEU39       0.2591
     38  O        -56.3190  117.6020    0.8980 O.2    39  LEU39      -0.2718
     39  CB       -57.4840  119.1130    3.5500 C.3    39  LEU39       0.0284
     40  CG       -58.7240  119.9120    3.9060 C.3    39  LEU39       0.0019
     41  CD1      -58.4280  120.8330    5.0580 C.3    39  LEU39       0.0001
     42  CD2      -59.2140  120.6890    2.6970 C.3    39  LEU39       0.0001
     43  N        -55.6850  116.7670    2.8620 N.am   40  ALA40      -0.1980
     44  CA       -54.4390  116.2250    2.3550 C.3    40  ALA40       0.1597
     45  C        -54.6980  115.2200    1.2430 C.2    40  ALA40       0.2287
     46  O        -54.1280  115.3260    0.1690 O.2    40  ALA40      -0.2864
     47  CB       -53.6840  115.5890    3.4570 C.3    40  ALA40       0.0319
     48  N        -55.9260  117.1920   -1.8970 N.3    43  GLU43      -0.1245
     49  CA       -54.8310  117.9520   -2.5150 C.3    43  GLU43       0.1567
     50  C        -53.8370  117.0590   -3.2370 C.2    43  GLU43       0.2260
     51  O        -53.2720  117.4670   -4.2290 O.2    43  GLU43      -0.2867
     52  CB       -54.0580  118.7950   -1.4960 C.3    43  GLU43       0.0388
     53  CG       -54.4020  120.2540   -1.5050 C.3    43  GLU43       0.1160
     54  CD       -54.2440  120.8920   -2.8640 C.2    43  GLU43       0.3649
     55  OE1      -53.1030  121.0180   -3.3370 O.co2  43  GLU43      -0.2457
     56  OE2      -55.2730  121.2770   -3.4590 O.co2  43  GLU43      -0.2457
     57  N        -45.2240  115.2900    1.1980 N.3    74  MET74      -0.1245
     58  CA       -45.5400  116.1500    2.3270 C.3    74  MET74       0.1570
     59  C        -44.9000  117.5140    2.1730 C.2    74  MET74       0.2261
     60  O        -45.4510  118.5130    2.6150 O.2    74  MET74      -0.2867
     61  CB       -45.0870  115.5090    3.6280 C.3    74  MET74       0.0387
     62  CG       -45.5400  116.2510    4.8600 C.3    74  MET74       0.0595
     63  SD       -47.3350  116.5010    4.9040 S.3    74  MET74      -0.1393
     64  CE       -47.8140  114.9760    5.6920 C.3    74  MET74       0.0692
     65  N        -47.2540  119.3490   -0.0350 N.3    77  LEU77      -0.1231
     66  CA       -48.4500  119.7090    0.7050 C.3    77  LEU77       0.1693
     67  C        -48.1760  120.8840    1.6130 C.2    77  LEU77       0.2591
     68  O        -48.9050  121.8630    1.6060 O.2    77  LEU77      -0.2718
     69  CB       -48.9670  118.5450    1.5460 C.3    77  LEU77       0.0284
     70  CG       -49.6850  117.4430    0.7760 C.3    77  LEU77       0.0019
     71  CD1      -49.7880  116.1710    1.6070 C.3    77  LEU77       0.0001
     72  CD2      -51.0360  117.9070    0.3550 C.3    77  LEU77       0.0001
     73  N        -47.1120  120.7890    2.3920 N.am   78  ILE78      -0.1980
     74  CA       -46.7860  121.8450    3.3320 C.3    78  ILE78       0.1595
     75  C        -46.4920  123.1230    2.5880 C.2    78  ILE78       0.2287
     76  O        -46.8910  124.1930    2.9950 O.2    78  ILE78      -0.2864
     77  CB       -45.6040  121.4580    4.2050 C.3    78  ILE78       0.0276
     78  CG1      -46.0880  120.5250    5.3000 C.3    78  ILE78       0.0022
     79  CG2      -44.9660  122.6780    4.8300 C.3    78  ILE78       0.0022
     80  CD1      -44.9930  119.7480    5.9150 C.3    78  ILE78       0.0001
     81  N        -47.7120  124.2070   -0.0730 N.3    80  GLY80      -0.1210
     82  CA       -48.9370  124.8250   -0.5430 C.3    80  GLY80       0.1956
     83  C        -49.5840  125.6280    0.5610 C.2    80  GLY80       0.2611
     84  O        -49.9000  126.8110    0.3990 O.2    80  GLY80      -0.2717
     85  N        -49.7490  124.9740    1.7020 N.am   81  VAL81      -0.1979
     86  CA       -50.3850  125.6010    2.8440 C.3    81  VAL81       0.1595
     87  C        -49.6220  126.8660    3.1780 C.2    81  VAL81       0.2287
     88  O        -50.1990  127.9220    3.4510 O.2    81  VAL81      -0.2864
     89  CB       -50.4020  124.6710    4.0390 C.3    81  VAL81       0.0276
     90  CG1      -51.0060  125.3630    5.2460 C.3    81  VAL81       0.0022
     91  CG2      -51.2130  123.4640    3.7210 C.3    81  VAL81       0.0022
     92  N        -50.4690  129.7190    0.7630 N.3    84  ARG84      -0.1245
     93  CA       -51.8050  130.2400    0.9590 C.3    84  ARG84       0.1563
     94  C        -51.8500  131.1050    2.2070 C.2    84  ARG84       0.2260
     95  O        -52.6910  131.9880    2.3090 O.2    84  ARG84      -0.2867
     96  CB       -52.8350  129.1130    1.1070 C.3    84  ARG84       0.0307
     97  CG       -52.8220  128.0170    0.0690 C.3    84  ARG84       0.0489
     98  CD       -52.8360  128.5060   -1.3570 C.3    84  ARG84       0.2205
     99  NE       -52.5580  127.4050   -2.2870 N.pl3  84  ARG84      -0.0865
    100  CZ       -52.2160  127.5840   -3.5650 C.cat  84  ARG84       0.5346
    101  NH1      -52.1700  128.8240   -4.0650 N.pl3  84  ARG84       0.1354
    102  NH2      -51.9390  126.5390   -4.3510 N.pl3  84  ARG84       0.1354
    103  N        -53.6410  128.4700    6.4240 N.3    93  VAL93      -0.1231
    104  CA       -54.7430  128.2470    5.5330 C.3    93  VAL93       0.1692
    105  C        -54.6560  126.8360    4.9820 C.2    93  VAL93       0.2592
    106  O        -54.0300  126.5920    3.9570 O.2    93  VAL93      -0.2718
    107  CB       -54.7550  129.2650    4.3780 C.3    93  VAL93       0.0266
    108  CG1      -55.9960  129.0710    3.4980 C.3    93  VAL93       0.0020
    109  CG2      -54.7010  130.7070    4.9130 C.3    93  VAL93       0.0020
    110  N        -55.2930  125.9040    5.6710 N.am   94  TYR94      -0.1962
    111  CA       -55.3500  124.5340    5.2150 C.3    94  TYR94       0.1771
    112  C        -56.4220  124.3230    4.1610 C.2    94  TYR94       0.2619
    113  O        -56.3590  123.3790    3.3700 O.2    94  TYR94      -0.2715
    114  CB       -55.5700  123.6130    6.3920 C.3    94  TYR94       0.0574
    115  CG       -54.2890  123.2980    7.0900 C.ar   94  TYR94      -0.0198
    116  CD1      -53.3830  122.4220    6.5250 C.ar   94  TYR94      -0.0009
    117  CD2      -53.9730  123.8760    8.3140 C.ar   94  TYR94      -0.0009
    118  CE1      -52.2010  122.1140    7.1590 C.ar   94  TYR94       0.0417
    119  CE2      -52.7890  123.5760    8.9570 C.ar   94  TYR94       0.0417
    120  CZ       -51.9090  122.6940    8.3720 C.ar   94  TYR94       0.1957
    121  OH       -50.7320  122.3820    8.9980 O.3    94  TYR94      -0.2866
    122  N        -57.4190  125.1970    4.1980 N.am   95  ALA95      -0.1963
    123  CA       -58.4230  125.3200    3.1580 C.3    95  ALA95       0.1728
    124  C        -58.8920  126.7640    3.2280 C.2    95  ALA95       0.2616
    125  O        -58.6180  127.4620    4.2080 O.2    95  ALA95      -0.2715
    126  CB       -59.5690  124.3410    3.3970 C.3    95  ALA95       0.0334
    127  N        -59.5700  127.2250    2.1840 N.am   96  ASP96      -0.1971
    128  CA       -60.1130  128.5820    2.1790 C.3    96  ASP96       0.1709
    129  C        -61.1340  128.7730    3.2660 C.2    96  ASP96       0.2293
    130  O        -61.2810  129.8710    3.7640 O.2    96  ASP96      -0.2864
    131  CB       -60.7230  128.9220    0.8280 C.3    96  ASP96       0.1436
    132  CG       -59.6750  129.1270   -0.2260 C.2    96  ASP96       0.3671
    133  OD1      -58.5000  129.3280    0.1520 O.co2  96  ASP96      -0.2456
    134  OD2      -60.0130  129.0750   -1.4260 O.co2  96  ASP96      -0.2456
    135  N        -46.1130  121.3630   15.2410 N.3   113  LEU113     -0.1245
    136  CA       -46.0680  121.2750   13.7860 C.3   113  LEU113      0.1561
    137  C        -46.4370  122.5790   13.0810 C.2   113  LEU113      0.2260
    138  O        -45.7520  123.0020   12.1440 O.2   113  LEU113     -0.2867
    139  CB       -46.9740  120.1590   13.2810 C.3   113  LEU113      0.0270
    140  CG       -47.0610  120.1130   11.7510 C.3   113  LEU113      0.0019
    141  CD1      -45.6810  119.8800   11.1320 C.3   113  LEU113      0.0001
    142  CD2      -48.0400  119.0520   11.2940 C.3   113  LEU113      0.0001
    143  N        -44.3750  125.3170   10.5580 N.3   117  ILE117     -0.1245
    144  CA       -44.9190  125.7710    9.2840 C.3   117  ILE117      0.1561
    145  C        -44.9510  127.2970    9.2160 C.2   117  ILE117      0.2260
    146  O        -44.6050  127.8870    8.1870 O.2   117  ILE117     -0.2867
    147  CB       -46.3110  125.1860    9.0330 C.3   117  ILE117      0.0252
    148  CG1      -46.2100  123.6670    8.8360 C.3   117  ILE117      0.0019
    149  CG2      -46.9100  125.7920    7.8120 C.3   117  ILE117      0.0019
    150  CD1      -47.4780  122.9160    9.0480 C.3   117  ILE117      0.0001
    151  N        -44.0700  116.3570   10.1190 N.3   199  ALA199     -0.1245
    152  CA       -45.4730  116.1420    9.7940 C.3   199  ALA199      0.1562
    153  C        -45.7680  114.6830    9.5320 C.2   199  ALA199      0.2260
    154  O        -46.7520  114.1560   10.0370 O.2   199  ALA199     -0.2867
    155  CB       -45.8600  116.9580    8.6050 C.3   199  ALA199      0.0290
    156  N        -48.2300  112.2910   11.7310 N.3   203  PHE203     -0.1241
    157  CA       -49.4440  111.7380   11.1610 C.3   203  PHE203      0.1605
    158  C        -49.3610  110.2370   11.0140 C.2   203  PHE203      0.2264
    159  O        -50.3720  109.5490   10.9170 O.2   203  PHE203     -0.2867
    160  CB       -49.7940  112.4320    9.8370 C.3   203  PHE203      0.0534
    161  CG       -50.6300  113.6520   10.0310 C.ar  203  PHE203     -0.0203
    162  CD1      -50.0520  114.8490   10.3670 C.ar  203  PHE203     -0.0042
    163  CD2      -52.0000  113.5790    9.9670 C.ar  203  PHE203     -0.0042
    164  CE1      -50.8180  115.9540   10.5830 C.ar  203  PHE203     -0.0003
    165  CE2      -52.7770  114.6860   10.1730 C.ar  203  PHE203     -0.0003
    166  CZ       -52.1900  115.8720   10.4860 C.ar  203  PHE203     -0.0000
    167  N        -53.9970  109.1130    0.8750 N.3   218  PHE218     -0.1241
    168  CA       -53.2350  109.6290    1.9880 C.3   218  PHE218      0.1605
    169  C        -52.5140  108.5050    2.7380 C.2   218  PHE218      0.2264
    170  O        -51.3720  108.6660    3.1320 O.2   218  PHE218     -0.2867
    171  CB       -54.1640  110.4350    2.9270 C.3   218  PHE218      0.0534
    172  CG       -53.4540  111.1040    4.0650 C.ar  218  PHE218     -0.0203
    173  CD1      -52.7840  112.2820    3.8750 C.ar  218  PHE218     -0.0042
    174  CD2      -53.4440  110.5410    5.3140 C.ar  218  PHE218     -0.0042
    175  CE1      -52.1150  112.8910    4.8980 C.ar  218  PHE218     -0.0003
    176  CE2      -52.7860  111.1590    6.3480 C.ar  218  PHE218     -0.0003
    177  CZ       -52.1200  112.3410    6.1310 C.ar  218  PHE218     -0.0000
@<TRIPOS>BOND
     1    18    17    1
     2    17    16    1
     3     1     2    1
     4     6     7    1
     5     6     5    1
     6     9     7   ar
     7     2     5    1
     8     2     3    1
     9    16    15    1
    10     7     8   ar
    11    15    14    1
    12     3    10   am
    13     3     4    2
    14    10    11    1
    15    14    11    1
    16   102   100    1
    17    13    12    2
    18    51    50    2
    19    11    12    1
    20   101   100    1
    21    12    19   am
    22   100    99    2
    23    56    54   ar
    24    55    54   ar
    25    50    49    1
    26    54    53    1
    27    49    48    1
    28    49    52    1
    29    19    20    1
    30    99    98    1
    31    20    23    1
    32    20    21    1
    33    53    52    1
    34   134   132   ar
    35    98    97    1
    36    23    24    1
    37    23    25    1
    38    24    26    1
    39    82    81    1
    40    82    83    1
    41    21    22    2
    42   132   133   ar
    43   132   131    1
    44    65    66    1
    45    97    96    1
    46    46    45    2
    47    72    70    1
    48    84    83    2
    49    83    85   am
    50    66    69    1
    51    66    67    1
    52    92    93    1
    53    70    69    1
    54    70    71    1
    55   131   128    1
    56   167   168    1
    57    38    37    2
    58    93    96    1
    59    93    94    1
    60    57    58    1
    61    45    44    1
    62    68    67    2
    63    67    73   am
    64    85    86    1
    65   168   169    1
    66   168   171    1
    67    37    36    1
    68    37    43   am
    69    59    58    1
    70    59    60    2
    71   128   127    1
    72   128   129    1
    73   127   124   am
    74    94    95    2
    75    58    61    1
    76    44    43    1
    77    44    47    1
    78    73    74    1
    79    75    76    2
    80    75    74    1
    81    42    40    1
    82    36    39    1
    83    36    35    1
    84   169   170    2
    85    86    87    1
    86    86    89    1
    87   171   172    1
    88   123   124    1
    89   123   126    1
    90   123   122    1
    91    87    88    2
    92   124   125    2
    93   129   130    2
    94    74    77    1
    95   113   112    2
    96   108   107    1
    97    39    40    1
    98    61    62    1
    99    91    89    1
   100   173   172   ar
   101   173   175   ar
   102    40    41    1
   103   106   105    2
   104    89    90    1
   105   172   174   ar
   106   112   122   am
   107   112   111    1
   108    77    79    1
   109    77    78    1
   110   107   109    1
   111   107   104    1
   112    62    63    1
   113   175   177   ar
   114    63    64    1
   115   105   104    1
   116   105   110   am
   117   111   110    1
   118   111   114    1
   119    78    80    1
   120   174   176   ar
   121   104   103    1
   122    30    29    2
   123   177   176   ar
   124   114   115    1
   125   116   115   ar
   126   116   118   ar
   127    29    28    1
   128   115   117   ar
   129   118   120   ar
   130    28    27    1
   131    28    31    1
   132   149   147    1
   133   146   145    2
   134   117   119   ar
   135   120   119   ar
   136   120   121    1
   137   155   152    1
   138    34    32    1
   139    31    32    1
   140   148   147    1
   141   148   150    1
   142   147   144    1
   143   145   144    1
   144   144   143    1
   145    32    33    1
   146   153   152    1
   147   153   154    2
   148   152   151    1
   149   160   161    1
   150   160   157    1
   151   163   161   ar
   152   163   165   ar
   153   161   162   ar
   154   165   166   ar
   155   162   164   ar
   156   166   164   ar
   157   159   158    2
   158   158   157    1
   159   141   140    1
   160   157   156    1
   161   142   140    1
   162   140   139    1
   163   138   137    2
   164   137   136    1
   165   139   136    1
   166   136   135    1
