@<TRIPOS>MOLECULE
tmp/2gpvF00.pdb
 194 184 0 0 0
SMALL
GASTEIGER

@<TRIPOS>ATOM
      1  N         88.2710  -44.8040  125.2800 N.3    33  LEU33      -0.1245
      2  CA        88.0990  -43.4250  125.7400 C.3    33  LEU33       0.1561
      3  C         89.3400  -42.9470  126.5020 C.2    33  LEU33       0.2260
      4  O         89.8770  -41.8700  126.2340 O.2    33  LEU33      -0.2867
      5  CB        86.8620  -43.3310  126.6250 C.3    33  LEU33       0.0270
      6  CG        85.5650  -43.7490  125.9220 C.3    33  LEU33       0.0019
      7  CD1       84.4970  -44.1250  126.9560 C.3    33  LEU33       0.0001
      8  CD2       85.0800  -42.6560  124.9520 C.3    33  LEU33       0.0001
      9  N         92.0390  -42.0810  124.0480 N.3    36  LEU36      -0.1231
     10  CA        91.7400  -40.8020  123.4070 C.3    36  LEU36       0.1693
     11  C         91.9450  -39.6510  124.3740 C.2    36  LEU36       0.2592
     12  O         92.6560  -38.7030  124.0560 O.2    36  LEU36      -0.2718
     13  CB        90.3230  -40.7950  122.8350 C.3    36  LEU36       0.0284
     14  CG        90.1240  -41.8410  121.7280 C.3    36  LEU36       0.0019
     15  CD1       88.6750  -42.2810  121.6210 C.3    36  LEU36       0.0001
     16  CD2       90.6640  -41.3190  120.4050 C.3    36  LEU36       0.0001
     17  N         91.3610  -39.7430  125.5640 N.am   37  CYS37      -0.1970
     18  CA        91.5870  -38.7270  126.6010 C.3    37  CYS37       0.1712
     19  C         93.0740  -38.4100  126.7660 C.2    37  CYS37       0.2296
     20  O         93.4810  -37.2520  126.7000 O.2    37  CYS37      -0.2864
     21  CB        91.0100  -39.1780  127.9460 C.3    37  CYS37       0.0983
     22  SG        89.2120  -39.0680  128.0240 S.3    37  CYS37      -0.0798
     23  N         95.5300  -39.1990  124.7250 N.3    39  LEU39      -0.1231
     24  CA        95.9990  -38.6770  123.4420 C.3    39  LEU39       0.1693
     25  C         95.6980  -37.2000  123.3570 C.2    39  LEU39       0.2592
     26  O         96.5910  -36.3940  123.1130 O.2    39  LEU39      -0.2718
     27  CB        95.3370  -39.4190  122.2660 C.3    39  LEU39       0.0284
     28  CG        95.8160  -39.0510  120.8520 C.3    39  LEU39       0.0019
     29  CD1       97.3340  -39.0050  120.7650 C.3    39  LEU39       0.0001
     30  CD2       95.2770  -40.0190  119.8360 C.3    39  LEU39       0.0001
     31  N         94.4340  -36.8610  123.5970 N.am   40  ALA40      -0.1966
     32  CA        93.9380  -35.4890  123.4840 C.3    40  ALA40       0.1728
     33  C         94.6150  -34.4850  124.4110 C.2    40  ALA40       0.2616
     34  O         94.8400  -33.3540  124.0120 O.2    40  ALA40      -0.2715
     35  CB        92.4490  -35.4690  123.7190 C.3    40  ALA40       0.0334
     36  N         94.9060  -34.8900  125.6460 N.am   41  ASP41      -0.1971
     37  CA        95.6450  -34.0480  126.6050 C.3    41  ASP41       0.1709
     38  C         97.0530  -33.6970  126.1160 C.2    41  ASP41       0.2293
     39  O         97.4850  -32.5370  126.1880 O.2    41  ASP41      -0.2864
     40  CB        95.7510  -34.7480  127.9700 C.3    41  ASP41       0.1436
     41  CG        94.4190  -34.7880  128.7210 C.2    41  ASP41       0.3671
     42  OD1       93.5110  -34.0080  128.3640 O.co2  41  ASP41      -0.2456
     43  OD2       94.2780  -35.5950  129.6710 O.co2  41  ASP41      -0.2456
     44  N         98.0320  -33.8960  122.9670 N.3    43  GLU43      -0.1231
     45  CA        97.8650  -33.0760  121.7530 C.3    43  GLU43       0.1699
     46  C         97.6670  -31.6000  122.0990 C.2    43  GLU43       0.2592
     47  O         98.2240  -30.7290  121.4410 O.2    43  GLU43      -0.2718
     48  CB        96.6900  -33.5760  120.8870 C.3    43  GLU43       0.0402
     49  CG        96.9740  -34.8880  120.1370 C.3    43  GLU43       0.1161
     50  CD        96.1540  -35.0920  118.8580 C.2    43  GLU43       0.3649
     51  OE1       95.7450  -34.1180  118.1920 O.co2  43  GLU43      -0.2457
     52  OE2       95.9460  -36.2630  118.4960 O.co2  43  GLU43      -0.2457
     53  N         96.8710  -31.3410  123.1390 N.am   44  LEU44      -0.1980
     54  CA        96.5700  -29.9830  123.6160 C.3    44  LEU44       0.1596
     55  C         97.8100  -29.2180  124.0630 C.2    44  LEU44       0.2287
     56  O         97.9330  -28.0130  123.8290 O.2    44  LEU44      -0.2864
     57  CB        95.5730  -30.0430  124.7750 C.3    44  LEU44       0.0297
     58  CG        94.1140  -30.2230  124.3440 C.3    44  LEU44       0.0022
     59  CD1       93.2620  -30.7770  125.4800 C.3    44  LEU44       0.0001
     60  CD2       93.5280  -28.9020  123.8280 C.3    44  LEU44       0.0001
     61  N         89.3980  -25.2500  121.2250 N.3    73  TRP73      -0.1227
     62  CA        90.2960  -26.4010  121.4220 C.3    73  TRP73       0.1737
     63  C         89.7870  -27.6760  120.7430 C.2    73  TRP73       0.2595
     64  O         90.5420  -28.3350  120.0460 O.2    73  TRP73      -0.2718
     65  CB        90.6350  -26.6420  122.9080 C.3    73  TRP73       0.0564
     66  CG        89.4880  -27.0380  123.7620 C.ar   73  TRP73       0.0003
     67  CD1       88.5800  -26.2140  124.3530 C.ar   73  TRP73       0.0946
     68  CD2       89.1290  -28.3630  124.1330 C.ar   73  TRP73       0.0152
     69  NE1       87.6660  -26.9420  125.0680 N.ar   73  TRP73      -0.2442
     70  CE2       87.9780  -28.2690  124.9500 C.ar   73  TRP73       0.0810
     71  CE3       89.6620  -29.6280  123.8500 C.ar   73  TRP73       0.0012
     72  CZ2       87.3520  -29.3920  125.4870 C.ar   73  TRP73       0.0191
     73  CZ3       89.0460  -30.7360  124.3790 C.ar   73  TRP73       0.0001
     74  CH2       87.9000  -30.6170  125.1930 C.ar   73  TRP73       0.0015
     75  N         88.5130  -28.0050  120.9030 N.am   74  MET74      -0.1979
     76  CA        88.0140  -29.2650  120.3670 C.3    74  MET74       0.1605
     77  C         88.0020  -29.2880  118.8330 C.2    74  MET74       0.2287
     78  O         88.3510  -30.3060  118.2370 O.2    74  MET74      -0.2864
     79  CB        86.6320  -29.5780  120.9290 C.3    74  MET74       0.0413
     80  CG        86.0340  -30.9030  120.4420 C.3    74  MET74       0.0598
     81  SD        86.9010  -32.3720  121.0230 S.3    74  MET74      -0.1393
     82  CE        86.1070  -32.6440  122.6180 C.3    74  MET74       0.0692
     83  N         91.4530  -30.1180  117.6230 N.3    77  LEU77      -0.1231
     84  CA        91.7140  -31.5440  117.7710 C.3    77  LEU77       0.1693
     85  C         91.0680  -32.3110  116.6300 C.2    77  LEU77       0.2591
     86  O         91.7040  -33.1630  116.0030 O.2    77  LEU77      -0.2718
     87  CB        91.1660  -32.0750  119.0990 C.3    77  LEU77       0.0284
     88  CG        91.9920  -31.8510  120.3690 C.3    77  LEU77       0.0019
     89  CD1       91.1290  -32.1340  121.6100 C.3    77  LEU77       0.0001
     90  CD2       93.2720  -32.7110  120.3620 C.3    77  LEU77       0.0001
     91  N         89.8020  -31.9920  116.3740 N.am   78  ILE78      -0.1980
     92  CA        88.9710  -32.7330  115.4210 C.3    78  ILE78       0.1595
     93  C         89.4290  -32.5360  113.9820 C.2    78  ILE78       0.2287
     94  O         89.5470  -33.4920  113.2240 O.2    78  ILE78      -0.2864
     95  CB        87.4820  -32.3690  115.5830 C.3    78  ILE78       0.0276
     96  CG1       86.9030  -33.1620  116.7580 C.3    78  ILE78       0.0022
     97  CG2       86.7180  -32.6670  114.3270 C.3    78  ILE78       0.0022
     98  CD1       85.5540  -32.6760  117.2490 C.3    78  ILE78       0.0001
     99  N         92.4010  -34.7710  113.4550 N.3    81  VAL81      -0.1245
    100  CA        92.1230  -36.1590  113.1090 C.3    81  VAL81       0.1561
    101  C         91.5080  -36.2750  111.7170 C.2    81  VAL81       0.2260
    102  O         91.8000  -37.2300  111.0010 O.2    81  VAL81      -0.2867
    103  CB        91.2230  -36.8750  114.1560 C.3    81  VAL81       0.0252
    104  CG1       89.8760  -36.1820  114.2980 C.3    81  VAL81       0.0019
    105  CG2       91.0340  -38.3260  113.7760 C.3    81  VAL81       0.0019
    106  N         94.2880  -36.0930  109.0590 N.3    84  ARG84      -0.1245
    107  CA        95.0320  -37.3460  109.0680 C.3    84  ARG84       0.1563
    108  C         94.2850  -38.5080  108.4320 C.2    84  ARG84       0.2260
    109  O         94.8990  -39.5050  108.0850 O.2    84  ARG84      -0.2867
    110  CB        95.4210  -37.7100  110.5010 C.3    84  ARG84       0.0307
    111  CG        96.5160  -36.8030  111.0670 C.3    84  ARG84       0.0489
    112  CD        97.1410  -37.3620  112.3390 C.3    84  ARG84       0.2205
    113  NE        96.1600  -37.5230  113.4110 N.pl3  84  ARG84      -0.0865
    114  CZ        95.6430  -36.5190  114.1160 C.cat  84  ARG84       0.5346
    115  NH1       95.9930  -35.2560  113.8770 N.pl3  84  ARG84       0.1354
    116  NH2       94.7690  -36.7780  115.0740 N.pl3  84  ARG84       0.1354
    117  N         93.2100  -41.2970  114.5630 N.3    94  TYR94      -0.1241
    118  CA        93.5510  -40.5150  115.7430 C.3    94  TYR94       0.1605
    119  C         95.0690  -40.4260  115.9350 C.2    94  TYR94       0.2264
    120  O         95.5740  -39.4330  116.4460 O.2    94  TYR94      -0.2867
    121  CB        92.8480  -41.0900  116.9680 C.3    94  TYR94       0.0534
    122  CG        91.3840  -40.7700  116.9450 C.ar   94  TYR94      -0.0201
    123  CD1       90.9420  -39.5050  117.3000 C.ar   94  TYR94      -0.0009
    124  CD2       90.4400  -41.6980  116.5230 C.ar   94  TYR94      -0.0009
    125  CE1       89.6000  -39.1720  117.2660 C.ar   94  TYR94       0.0417
    126  CE2       89.0830  -41.3770  116.4930 C.ar   94  TYR94       0.0417
    127  CZ        88.6750  -40.1080  116.8730 C.ar   94  TYR94       0.1957
    128  OH        87.3440  -39.7490  116.8600 O.3    94  TYR94      -0.2866
    129  N         80.8790  -44.6910  120.2370 N.3   110  LEU110     -0.1245
    130  CA        81.2500  -43.4820  119.4930 C.3   110  LEU110      0.1561
    131  C         80.7980  -43.5420  118.0200 C.2   110  LEU110      0.2260
    132  O         81.2940  -42.7810  117.1860 O.2   110  LEU110     -0.2867
    133  CB        82.7770  -43.2610  119.5610 C.3   110  LEU110      0.0270
    134  CG        83.3790  -42.5500  120.7810 C.3   110  LEU110      0.0019
    135  CD1       84.9000  -42.5770  120.7060 C.3   110  LEU110      0.0001
    136  CD2       82.8880  -41.1120  120.9150 C.3   110  LEU110      0.0001
    137  N         79.2600  -40.1300  116.7960 N.3   113  LEU113     -0.1231
    138  CA        80.2380  -39.0320  116.8270 C.3   113  LEU113      0.1693
    139  C         81.3070  -39.1440  115.7340 C.2   113  LEU113      0.2592
    140  O         81.6370  -38.1600  115.0700 O.2   113  LEU113     -0.2718
    141  CB        80.8990  -38.9720  118.2070 C.3   113  LEU113      0.0284
    142  CG        81.7260  -37.7450  118.5770 C.3   113  LEU113      0.0019
    143  CD1       81.3350  -36.4910  117.7990 C.3   113  LEU113      0.0001
    144  CD2       81.5870  -37.5240  120.0690 C.3   113  LEU113      0.0001
    145  N         81.8500  -40.3460  115.5650 N.am  114  ASN114     -0.1974
    146  CA        82.8570  -40.5910  114.5360 C.3   114  ASN114      0.1688
    147  C         82.2380  -40.5050  113.1440 C.2   114  ASN114      0.2292
    148  O         82.8760  -40.0230  112.2070 O.2   114  ASN114     -0.2864
    149  CB        83.5800  -41.9360  114.7500 C.3   114  ASN114      0.1181
    150  CG        84.6830  -41.8570  115.8170 C.2   114  ASN114      0.2629
    151  OD1       84.9970  -40.7830  116.3270 O.2   114  ASN114     -0.2716
    152  ND2       85.2680  -43.0020  116.1540 N.am  114  ASN114     -0.0877
    153  N         82.3280  -37.0800  112.2210 N.3   117  ILE117     -0.1245
    154  CA        83.6610  -36.6560  111.8740 C.3   117  ILE117      0.1561
    155  C         83.9830  -37.1300  110.4580 C.2   117  ILE117      0.2260
    156  O         84.6490  -36.4160  109.6970 O.2   117  ILE117     -0.2867
    157  CB        84.6680  -37.1630  112.9220 C.3   117  ILE117      0.0252
    158  CG1       84.4150  -36.4190  114.2460 C.3   117  ILE117      0.0019
    159  CG2       86.1060  -36.9950  112.4320 C.3   117  ILE117      0.0019
    160  CD1       85.1180  -37.0090  115.4480 C.3   117  ILE117      0.0001
    161  N         81.0230  -33.4150  120.2850 N.3   199  ALA199     -0.1245
    162  CA        82.0510  -34.1220  121.0340 C.3   199  ALA199      0.1562
    163  C         82.1220  -33.5710  122.4570 C.2   199  ALA199      0.2260
    164  O         82.0200  -34.3220  123.4330 O.2   199  ALA199     -0.2867
    165  CB        83.3980  -33.9880  120.3290 C.3   199  ALA199      0.0290
    166  N         79.2290  -34.6440  124.3740 N.3   202  HIS202     -0.1226
    167  CA        79.3730  -36.1010  124.5530 C.3   202  HIS202      0.1752
    168  C         80.4410  -36.4820  125.5670 C.2   202  HIS202      0.2596
    169  O         80.3360  -37.5210  126.2020 O.2   202  HIS202     -0.2718
    170  CB        79.6780  -36.7790  123.2200 C.3   202  HIS202      0.0759
    171  CG        79.8060  -38.2620  123.3160 C.ar  202  HIS202      0.0818
    172  ND1       78.7390  -39.0800  123.6100 N.ar  202  HIS202     -0.2268
    173  CD2       80.8740  -39.0770  123.1590 C.ar  202  HIS202      0.1154
    174  CE1       79.1450  -40.3370  123.6370 C.ar  202  HIS202      0.1986
    175  NE2       80.4370  -40.3610  123.3660 N.ar  202  HIS202     -0.2212
    176  N         81.4640  -35.6480  125.7250 N.am  203  PHE203     -0.1976
    177  CA        82.4950  -35.9110  126.7340 C.3   203  PHE203      0.1639
    178  C         81.9620  -35.6780  128.1450 C.2   203  PHE203      0.2290
    179  O         82.1080  -36.5330  129.0180 O.2   203  PHE203     -0.2864
    180  CB        83.7470  -35.0620  126.4950 C.3   203  PHE203      0.0560
    181  CG        84.8420  -35.3160  127.4900 C.ar  203  PHE203     -0.0200
    182  CD1       85.4120  -36.5810  127.5990 C.ar  203  PHE203     -0.0042
    183  CD2       85.2960  -34.3010  128.3220 C.ar  203  PHE203     -0.0042
    184  CE1       86.4240  -36.8370  128.5170 C.ar  203  PHE203     -0.0003
    185  CE2       86.3050  -34.5410  129.2440 C.ar  203  PHE203     -0.0003
    186  CZ        86.8750  -35.8190  129.3420 C.ar  203  PHE203     -0.0000
    187  N         79.3680  -38.2860  129.1970 N.3   206  ILE206     -0.1245
    188  CA        79.8510  -39.6040  129.6160 C.3   206  ILE206      0.1561
    189  C         80.7970  -39.5530  130.8210 C.2   206  ILE206      0.2260
    190  O         81.2880  -40.5930  131.2580 O.2   206  ILE206     -0.2867
    191  CB        80.4980  -40.3920  128.4400 C.3   206  ILE206      0.0252
    192  CG1       81.8900  -39.8350  128.0710 C.3   206  ILE206      0.0019
    193  CG2       79.5510  -40.3970  127.2370 C.3   206  ILE206      0.0019
    194  CD1       82.5340  -40.5270  126.8810 C.3   206  ILE206      0.0001
@<TRIPOS>BOND
     1   109   108    2
     2   108   107    1
     3   106   107    1
     4   107   110    1
     5   156   155    2
     6   155   154    1
     7   110   111    1
     8   102   101    2
     9   111   112    1
    10   101   100    1
    11   154   153    1
    12   154   157    1
    13   148   147    2
    14   112   113    1
    15   159   157    1
    16   157   158    1
    17   100    99    1
    18   100   103    1
    19   147   146    1
    20    94    93    2
    21   113   114    2
    22   105   103    1
    23   115   114    1
    24    93    92    1
    25   114   116    1
    26   103   104    1
    27   158   160    1
    28    97    95    1
    29   146   149    1
    30   146   145    1
    31   117   118    1
    32   149   150    1
    33   140   139    2
    34    92    95    1
    35    92    91    1
    36   145   139   am
    37    95    96    1
    38   139   138    1
    39   118   119    1
    40   118   121    1
    41   150   152   am
    42   150   151    2
    43   119   120    2
    44    86    85    2
    45    91    85   am
    46   126   124   ar
    47   126   127   ar
    48   124   122   ar
    49    85    84    1
    50    96    98    1
    51   137   138    1
    52   138   141    1
    53   128   127    1
    54   127   125   ar
    55   122   121    1
    56   122   123   ar
    57   132   131    2
    58   125   123   ar
    59    83    84    1
    60    84    87    1
    61   143   142    1
    62   131   130    1
    63    51    50   ar
    64   141   142    1
    65    78    77    2
    66    52    50   ar
    67   142   144    1
    68    77    76    1
    69    50    49    1
    70    87    88    1
    71   130   133    1
    72   130   129    1
    73   133   134    1
    74    30    28    1
    75    64    63    2
    76    49    48    1
    77   161   162    1
    78   165   162    1
    79    90    88    1
    80    76    75    1
    81    76    79    1
    82    88    89    1
    83    16    14    1
    84    80    79    1
    85    80    81    1
    86   135   134    1
    87    63    75   am
    88    63    62    1
    89    29    28    1
    90   134   136    1
    91    28    27    1
    92    48    45    1
    93    81    82    1
    94   162   163    1
    95    61    62    1
    96    62    65    1
    97    47    46    2
    98    15    14    1
    99    14    13    1
   100    45    46    1
   101    45    44    1
   102    46    53   am
   103    27    24    1
   104   163   164    2
   105    13    10    1
   106    65    66    1
   107    26    25    2
   108    53    54    1
   109   173   171   ar
   110   173   175   ar
   111   170   171    1
   112   170   167    1
   113   171   172   ar
   114    25    24    1
   115    25    31   am
   116   175   174   ar
   117    10     9    1
   118    10    11    1
   119    24    23    1
   120    32    31    1
   121    32    35    1
   122    32    33    1
   123   172   174   ar
   124    54    55    1
   125    54    57    1
   126    66    68   ar
   127    66    67   ar
   128    60    58    1
   129    56    55    2
   130    71    68   ar
   131    71    73   ar
   132    34    33    2
   133    12    11    2
   134    68    70   ar
   135    58    57    1
   136    58    59    1
   137    67    69   ar
   138    11    17   am
   139   166   167    1
   140    73    74   ar
   141    33    36   am
   142   167   168    1
   143    70    69   ar
   144    70    72   ar
   145     8     6    1
   146    74    72   ar
   147     1     2    1
   148    17    18    1
   149   168   176   am
   150   168   169    2
   151    36    37    1
   152   176   177    1
   153     2     3    1
   154     2     5    1
   155     6     5    1
   156     6     7    1
   157    38    39    2
   158    38    37    1
   159     4     3    2
   160   180   177    1
   161   180   181    1
   162    18    19    1
   163    18    21    1
   164    37    40    1
   165    20    19    2
   166   177   178    1
   167   194   192    1
   168   193   191    1
   169   181   182   ar
   170   181   183   ar
   171   182   184   ar
   172    21    22    1
   173    40    41    1
   174   192   191    1
   175   178   179    2
   176   183   185   ar
   177    42    41   ar
   178   191   188    1
   179   184   186   ar
   180    41    43   ar
   181   187   188    1
   182   185   186   ar
   183   188   189    1
   184   189   190    2
