@<TRIPOS>MOLECULE
tmp/2gq2D01.pdb
 98 96 0 0 0
SMALL
GASTEIGER

@<TRIPOS>ATOM
      1  N         16.2200   20.9500   12.2260 N.3    40  CYS40      -0.1221
      2  CA        15.7310   21.3010   13.5630 C.3    40  CYS40       0.1808
      3  C         15.2660   22.7440   13.6960 C.2    40  CYS40       0.2601
      4  O         14.3500   23.0340   14.4600 O.2    40  CYS40      -0.2717
      5  CB        16.7990   21.0310   14.6330 C.3    40  CYS40       0.0970
      6  SG        17.3730   19.3070   14.7320 S.3    40  CYS40      -0.0800
      7  N         15.9280   23.6520   12.9850 N.am   41  TYR41      -0.1976
      8  CA        15.5960   25.0750   13.0710 C.3    41  TYR41       0.1639
      9  C         15.1970   25.6610   11.7140 C.2    41  TYR41       0.2290
     10  O         14.9230   26.8460   11.6060 O.2    41  TYR41      -0.2864
     11  CB        16.7440   25.8480   13.7340 C.3    41  TYR41       0.0560
     12  CG        17.0400   25.3290   15.1320 C.ar   41  TYR41      -0.0198
     13  CD1       16.3240   25.8050   16.2330 C.ar   41  TYR41      -0.0009
     14  CD2       17.9930   24.3260   15.3430 C.ar   41  TYR41      -0.0009
     15  CE1       16.5670   25.3110   17.5260 C.ar   41  TYR41       0.0417
     16  CE2       18.2420   23.8220   16.6320 C.ar   41  TYR41       0.0417
     17  CZ        17.5210   24.3230   17.7180 C.ar   41  TYR41       0.1957
     18  OH        17.7510   23.8480   19.0040 O.3    41  TYR41      -0.2866
     19  N         25.4760   18.7670   20.3140 N.3    65  HIS65      -0.1226
     20  CA        24.3150   18.1730   19.6670 C.3    65  HIS65       0.1752
     21  C         24.6980   16.8750   18.9510 C.2    65  HIS65       0.2596
     22  O         24.4980   16.7370   17.7440 O.2    65  HIS65      -0.2718
     23  CB        23.6410   19.1760   18.7050 C.3    65  HIS65       0.0759
     24  CG        22.8390   20.2350   19.4010 C.ar   65  HIS65       0.0818
     25  ND1       22.4150   21.3870   18.7710 N.ar   65  HIS65      -0.2268
     26  CD2       22.4080   20.3320   20.6830 C.ar   65  HIS65       0.1154
     27  CE1       21.7420   22.1370   19.6270 C.ar   65  HIS65       0.1986
     28  NE2       21.7220   21.5190   20.7940 N.ar   65  HIS65      -0.2212
     29  N         25.2210   15.9150   19.7030 N.am   66  PHE66      -0.1962
     30  CA        25.7810   14.6960   19.1010 C.3    66  PHE66       0.1771
     31  C         24.7570   13.7500   18.4280 C.2    66  PHE66       0.2620
     32  O         25.1210   12.9460   17.5810 O.2    66  PHE66      -0.2715
     33  CB        26.6410   13.9370   20.1180 C.3    66  PHE66       0.0574
     34  CG        27.8470   14.7120   20.5970 C.ar   66  PHE66      -0.0200
     35  CD1       28.8450   15.0940   19.7110 C.ar   66  PHE66      -0.0042
     36  CD2       27.9880   15.0410   21.9460 C.ar   66  PHE66      -0.0042
     37  CE1       29.9630   15.8140   20.1440 C.ar   66  PHE66      -0.0003
     38  CE2       29.1100   15.7530   22.4020 C.ar   66  PHE66      -0.0003
     39  CZ        30.0970   16.1390   21.4920 C.ar   66  PHE66      -0.0000
     40  N         23.4790   13.8700   18.7730 N.am   67  SER67      -0.1950
     41  CA        22.4570   12.9820   18.2080 C.3    67  SER67       0.1924
     42  C         22.2880   13.1090   16.6740 C.2    67  SER67       0.2314
     43  O         21.8870   12.1480   16.0040 O.2    67  SER67      -0.2863
     44  CB        21.1290   13.1930   18.9340 C.3    67  SER67       0.2116
     45  OG        20.5350   14.4040   18.5020 O.3    67  SER67      -0.2180
     46  N         24.1560   10.6290   14.4080 N.3    70  GLU70      -0.1245
     47  CA        23.5760    9.2790   14.2860 C.3    70  GLU70       0.1567
     48  C         23.0430    8.9780   12.8980 C.2    70  GLU70       0.2260
     49  O         22.8240    7.8300   12.5690 O.2    70  GLU70      -0.2867
     50  CB        22.4470    9.0760   15.3110 C.3    70  GLU70       0.0388
     51  CG        22.9170    9.1260   16.7850 C.3    70  GLU70       0.1160
     52  CD        21.7700    9.0170   17.7980 C.2    70  GLU70       0.3649
     53  OE1       20.6470    8.5950   17.4360 O.co2  70  GLU70      -0.2457
     54  OE2       21.9790    9.3690   18.9670 O.co2  70  GLU70      -0.2457
     55  N         25.0350   -0.3940   19.8040 N.3    94  HIS94      -0.1241
     56  CA        24.8630    0.6410   18.7950 C.3    94  HIS94       0.1621
     57  C         25.7890    0.4090   17.6070 C.2    94  HIS94       0.2264
     58  O         26.0130    1.3290   16.8240 O.2    94  HIS94      -0.2867
     59  CB        25.0170    2.0610   19.3740 C.3    94  HIS94       0.0745
     60  CG        24.0840    2.3520   20.5110 C.ar   94  HIS94       0.0817
     61  ND1       24.5260    2.5400   21.8030 N.ar   94  HIS94      -0.2268
     62  CD2       22.7370    2.4660   20.5570 C.ar   94  HIS94       0.1154
     63  CE1       23.4940    2.7630   22.5950 C.ar   94  HIS94       0.1986
     64  NE2       22.3980    2.7180   21.8650 N.ar   94  HIS94      -0.2212
     65  N         26.9240    4.2560   13.1500 N.3   167  ASN167     -0.1240
     66  CA        26.8290    5.6820   12.8300 C.3   167  ASN167      0.1653
     67  C         28.0240    6.4520   13.4150 C.2   167  ASN167      0.2266
     68  O         28.7900    5.9080   14.2420 O.2   167  ASN167     -0.2867
     69  CB        25.4790    6.2770   13.2920 C.3   167  ASN167      0.1155
     70  CG        25.2930    6.2030   14.7900 C.2   167  ASN167      0.2627
     71  OD1       26.1030    6.7290   15.5400 O.2   167  ASN167     -0.2716
     72  ND2       24.2410    5.5160   15.2310 N.am  167  ASN167     -0.0877
     73  N         28.2720    8.7620   15.5960 N.3   169  ARG169     -0.1231
     74  CA        28.2600    8.9180   17.0450 C.3   169  ARG169      0.1694
     75  C         28.8550    7.6790   17.7220 C.2   169  ARG169      0.2591
     76  O         29.6560    7.7960   18.6700 O.2   169  ARG169     -0.2718
     77  CB        26.8340    9.1890   17.5410 C.3   169  ARG169      0.0321
     78  CG        26.8030    9.5330   18.9990 C.3   169  ARG169      0.0489
     79  CD        25.4360    9.9110   19.4770 C.3   169  ARG169      0.2205
     80  NE        25.4880   10.6060   20.7660 N.pl3 169  ARG169     -0.0865
     81  CZ        24.3950   10.9260   21.4660 C.cat 169  ARG169      0.5346
     82  NH1       23.1960   10.5870   20.9980 N.pl3 169  ARG169      0.1354
     83  NH2       24.4960   11.5580   22.6330 N.pl3 169  ARG169      0.1354
     84  N         28.4650    6.4970   17.2330 N.am  170  ALA170     -0.1980
     85  CA        28.9360    5.2360   17.7850 C.3   170  ALA170      0.1597
     86  C         30.4350    5.0190   17.5320 C.2   170  ALA170      0.2287
     87  O         31.1630    4.6080   18.4440 O.2   170  ALA170     -0.2864
     88  CB        28.0910    4.0650   17.2800 C.3   170  ALA170      0.0319
     89  N         32.4930    7.1670   19.9380 N.3   173  HIS173     -0.1241
     90  CA        32.5560    6.5610   21.2660 C.3   173  HIS173      0.1621
     91  C         33.5430    5.3700   21.3620 C.2   173  HIS173      0.2264
     92  O         34.3480    5.2860   22.3060 O.2   173  HIS173     -0.2867
     93  CB        31.1490    6.1810   21.7600 C.3   173  HIS173      0.0745
     94  CG        31.1340    5.6160   23.1480 C.ar  173  HIS173      0.0817
     95  ND1       31.1850    6.4080   24.2770 N.ar  173  HIS173     -0.2268
     96  CD2       31.1120    4.3340   23.5870 C.ar  173  HIS173      0.1154
     97  CE1       31.1810    5.6370   25.3510 C.ar  173  HIS173      0.1986
     98  NE2       31.1390    4.3750   24.9590 N.ar  173  HIS173     -0.2212
@<TRIPOS>BOND
     1    10     9    2
     2     9     8    1
     3     1     2    1
     4    49    48    2
     5    66    65    1
     6    66    69    1
     7    66    67    1
     8    48    47    1
     9     7     8    1
    10     7     3   am
    11     8    11    1
    12    69    70    1
    13    67    68    2
    14     2     3    1
    15     2     5    1
    16     3     4    2
    17    11    12    1
    18    47    46    1
    19    47    50    1
    20     5     6    1
    21    70    72   am
    22    70    71    2
    23    12    14   ar
    24    12    13   ar
    25    50    51    1
    26    14    16   ar
    27    73    74    1
    28    43    42    2
    29    13    15   ar
    30    16    17   ar
    31    42    41    1
    32    51    52    1
    33    58    57    2
    34    74    77    1
    35    74    75    1
    36    84    75   am
    37    84    85    1
    38    88    85    1
    39    53    52   ar
    40    15    17   ar
    41    86    85    1
    42    86    87    2
    43    77    78    1
    44    32    31    2
    45    57    56    1
    46    17    18    1
    47    75    76    2
    48    22    21    2
    49    52    54   ar
    50    41    40    1
    51    41    44    1
    52    31    40   am
    53    31    30    1
    54    45    44    1
    55    23    24    1
    56    23    20    1
    57    25    24   ar
    58    25    27   ar
    59    56    59    1
    60    56    55    1
    61    21    20    1
    62    21    29   am
    63    78    79    1
    64    30    29    1
    65    30    33    1
    66    59    60    1
    67    24    26   ar
    68    79    80    1
    69    27    28   ar
    70    20    19    1
    71    35    37   ar
    72    35    34   ar
    73    89    90    1
    74    33    34    1
    75    37    39   ar
    76    60    62   ar
    77    60    61   ar
    78    62    64   ar
    79    34    36   ar
    80    26    28   ar
    81    80    81    2
    82    82    81    1
    83    90    91    1
    84    90    93    1
    85    91    92    2
    86    81    83    1
    87    39    38   ar
    88    93    94    1
    89    61    63   ar
    90    64    63   ar
    91    36    38   ar
    92    94    96   ar
    93    94    95   ar
    94    96    98   ar
    95    95    97   ar
    96    98    97   ar
