@<TRIPOS>MOLECULE
tmp/2gq3A02.pdb
 101 94 0 0 0
SMALL
GASTEIGER

@<TRIPOS>ATOM
      1  N         53.3090   23.6340   84.6730 N.3   116  PRO116     -0.2116
      2  CA        53.7990   23.4000   86.0190 C.3   116  PRO116      0.1372
      3  C         54.7720   22.2180   86.0880 C.2   116  PRO116      0.2244
      4  O         54.4320   21.0880   85.7760 O.2   116  PRO116     -0.2868
      5  CB        52.5110   23.2800   86.8520 C.3   116  PRO116      0.0268
      6  CG        51.4080   22.8430   85.8190 C.3   116  PRO116      0.0207
      7  CD        51.8350   23.4960   84.5290 C.3   116  PRO116      0.0892
      8  N         55.8070   20.5510   88.5510 N.3   118  LEU118     -0.1231
      9  CA        55.4230   19.5310   89.5660 C.3   118  LEU118      0.1693
     10  C         54.5160   18.4120   89.0340 C.2   118  LEU118      0.2592
     11  O         54.2790   17.3620   89.6990 O.2   118  LEU118     -0.2718
     12  CB        54.6750   20.2200   90.7060 C.3   118  LEU118      0.0284
     13  CG        55.3130   20.4150   92.0990 C.3   118  LEU118      0.0019
     14  CD1       56.6670   20.9600   92.0050 C.3   118  LEU118      0.0001
     15  CD2       54.4650   21.3480   93.0290 C.3   118  LEU118      0.0001
     16  N         53.9800   18.6670   87.8490 N.am  119  ASN119     -0.1974
     17  CA        53.0370   17.7810   87.1840 C.3   119  ASN119      0.1688
     18  C         53.8380   17.1010   86.0640 C.2   119  ASN119      0.2292
     19  O         54.0260   17.7080   84.9980 O.2   119  ASN119     -0.2864
     20  CB        51.8620   18.5510   86.5720 C.3   119  ASN119      0.1181
     21  CG        50.7640   17.5620   86.0400 C.2   119  ASN119      0.2629
     22  OD1       51.0910   16.5300   85.4310 O.2   119  ASN119     -0.2716
     23  ND2       49.4710   17.8280   86.3850 N.am  119  ASN119     -0.0877
     24  N         52.5510   28.8280   88.3180 N.3   271  SER271     -0.1202
     25  CA        51.6290   27.6930   88.0840 C.3   271  SER271      0.2020
     26  C         51.8320   26.5680   89.1230 C.2   271  SER271      0.2619
     27  O         51.1680   25.5620   89.0510 O.2   271  SER271     -0.2717
     28  CB        51.7540   27.1240   86.6720 C.3   271  SER271      0.2103
     29  OG        53.0950   26.6430   86.5880 O.3   271  SER271     -0.2182
     30  N         52.7210   26.7600   90.1130 N.am  272  VAL272     -0.1965
     31  CA        52.9020   25.6670   91.0680 C.3   272  VAL272      0.1727
     32  C         52.8050   26.2080   92.5010 C.2   272  VAL272      0.2616
     33  O         53.0250   27.3990   92.7360 O.2   272  VAL272     -0.2715
     34  CB        54.2970   24.8590   90.9000 C.3   272  VAL272      0.0290
     35  CG1       54.5150   24.2630   89.5290 C.3   272  VAL272      0.0023
     36  CG2       55.4640   25.6740   91.3560 C.3   272  VAL272      0.0023
     37  N         52.5110   25.2970   93.4150 N.am  273  ALA273     -0.1977
     38  CA        52.4430   25.6090   94.8220 C.3   273  ALA273      0.1597
     39  C         53.6220   24.8270   95.4380 C.2   273  ALA273      0.2287
     40  O         53.7030   23.6060   95.3150 O.2   273  ALA273     -0.2864
     41  CB        51.0820   25.1580   95.3490 C.3   273  ALA273      0.0319
     42  N         58.2790   20.1150   98.6680 N.3   279  ASP279     -0.1239
     43  CA        57.6880   20.5990   97.4050 C.3   279  ASP279      0.1674
     44  C         58.7420   20.9980   96.3370 C.2   279  ASP279      0.2266
     45  O         58.5770   20.7590   95.1170 O.2   279  ASP279     -0.2867
     46  CB        56.8300   21.8150   97.7020 C.3   279  ASP279      0.1410
     47  CG        55.5580   21.4780   98.4720 C.2   279  ASP279      0.3668
     48  OD1       55.0800   20.3000   98.5670 O.co2 279  ASP279     -0.2456
     49  OD2       55.0100   22.4590   98.9990 O.co2 279  ASP279     -0.2456
     50  N         60.3660   17.8830   94.8460 N.3   282  LEU282     -0.1245
     51  CA        59.4530   17.3580   93.7920 C.3   282  LEU282      0.1561
     52  C         59.6590   18.0320   92.4730 C.2   282  LEU282      0.2260
     53  O         59.8040   17.3300   91.4750 O.2   282  LEU282     -0.2867
     54  CB        57.9350   17.4290   94.1680 C.3   282  LEU282      0.0270
     55  CG        57.4940   16.6310   95.4250 C.3   282  LEU282      0.0019
     56  CD1       55.9860   16.8680   95.6860 C.3   282  LEU282      0.0001
     57  CD2       57.8470   15.0990   95.3560 C.3   282  LEU282      0.0001
     58  N         44.9590   21.5900   98.2900 N.3   608  GLN608     -0.1231
     59  CA        45.6050   20.5580   97.5050 C.3   608  GLN608      0.1698
     60  C         47.0010   20.8510   96.9470 C.2   608  GLN608      0.2593
     61  O         47.5690   19.9810   96.3050 O.2   608  GLN608     -0.2718
     62  CB        44.6610   20.0180   96.4180 C.3   608  GLN608      0.0381
     63  CG        43.1990   19.8330   96.9630 C.3   608  GLN608      0.0905
     64  CD        42.2860   19.1050   95.9830 C.2   608  GLN608      0.2608
     65  OE1       42.6500   18.0250   95.4740 O.2   608  GLN608     -0.2717
     66  NE2       41.0900   19.6920   95.6960 N.am  608  GLN608     -0.0878
     67  N         47.5430   22.0450   97.1500 N.am  609  GLY609     -0.1942
     68  CA        48.8740   22.3520   96.6100 C.3   609  GLY609      0.2014
     69  C         48.8810   22.3090   95.0890 C.2   609  GLY609      0.2639
     70  O         49.8870   21.9400   94.4520 O.2   609  GLY609     -0.2714
     71  N         47.7630   22.7150   94.4840 N.am  610  VAL610     -0.1963
     72  CA        47.6590   22.8860   93.0140 C.3   610  VAL610      0.1727
     73  C         47.7710   24.3650   92.7180 C.2   610  VAL610      0.2616
     74  O         46.8910   25.1440   93.1140 O.2   610  VAL610     -0.2715
     75  CB        46.3010   22.3110   92.4840 C.3   610  VAL610      0.0290
     76  CG1       46.1320   22.4850   90.9340 C.3   610  VAL610      0.0023
     77  CG2       46.1390   20.7720   92.8680 C.3   610  VAL610      0.0023
     78  N         48.8000   24.7620   91.9720 N.am  611  GLY611     -0.1955
     79  CA        49.0010   26.1370   91.6750 C.3   611  GLY611      0.1869
     80  C         48.5060   26.7070   90.3590 C.2   611  GLY611      0.2309
     81  O         48.6290   27.8810   90.0980 O.2   611  GLY611     -0.2863
     82  N         49.0520   27.6550  103.0000 N.3   711  ARG711     -0.1245
     83  CA        49.2740   26.2630  102.5890 C.3   711  ARG711      0.1563
     84  C         50.0680   25.4680  103.6630 C.2   711  ARG711      0.2260
     85  O         49.7440   24.2760  103.9620 O.2   711  ARG711     -0.2867
     86  CB        49.9900   26.2430  101.2560 C.3   711  ARG711      0.0307
     87  CG        50.4460   24.8420  100.8090 C.3   711  ARG711      0.0489
     88  CD        49.2830   23.8590  100.5650 C.3   711  ARG711      0.2205
     89  NE        49.8410   22.6210  100.0340 N.pl3 711  ARG711     -0.0865
     90  CZ        49.2320   21.4500  100.0850 C.cat 711  ARG711      0.5346
     91  NH1       48.0240   21.3620  100.6150 N.pl3 711  ARG711      0.1354
     92  NH2       49.7960   20.3710   99.5540 N.pl3 711  ARG711      0.1354
     93  N         49.0190   22.0850  105.6270 N.3   715  LYS715     -0.1245
     94  CA        49.8420   20.9160  105.7900 C.3   715  LYS715      0.1561
     95  C         50.0240   20.5830  107.2590 C.2   715  LYS715      0.2260
     96  O         49.8980   19.4030  107.6510 O.2   715  LYS715     -0.2867
     97  CB        51.2210   21.0980  105.1190 C.3   715  LYS715      0.0271
     98  CG        51.0770   21.0970  103.6190 C.3   715  LYS715      0.0035
     99  CD        52.3010   21.5500  102.9210 C.3   715  LYS715      0.0206
    100  CE        52.9270   20.4690  102.1200 C.3   715  LYS715      0.1093
    101  NZ        54.2230   20.9410  101.4450 N.3   715  LYS715     -0.1314
@<TRIPOS>BOND
     1     7     1    1
     2     7     6    1
     3     1     2    1
     4    19    18    2
     5    22    21    2
     6     4     3    2
     7     6     5    1
     8     2     3    1
     9     2     5    1
    10    21    23   am
    11    21    20    1
    12    18    17    1
    13    20    17    1
    14    29    28    1
    15    28    25    1
    16    17    16    1
    17    16    10   am
    18    25    24    1
    19    25    26    1
    20     8     9    1
    21    10     9    1
    22    10    11    2
    23    27    26    2
    24    26    30   am
    25    35    34    1
    26     9    12    1
    27    81    80    2
    28    30    31    1
    29    80    79    1
    30    12    13    1
    31    34    31    1
    32    34    36    1
    33    76    75    1
    34    31    32    1
    35    53    52    2
    36    79    78    1
    37    78    73   am
    38    14    13    1
    39    13    15    1
    40    52    51    1
    41    75    77    1
    42    75    72    1
    43    32    33    2
    44    32    37   am
    45    73    72    1
    46    73    74    2
    47    72    71    1
    48    37    38    1
    49    51    54    1
    50    51    50    1
    51    54    55    1
    52    70    69    2
    53    71    69   am
    54    38    41    1
    55    38    39    1
    56    69    68    1
    57    45    44    2
    58    40    39    2
    59    57    55    1
    60    55    56    1
    61    65    64    2
    62    66    64   am
    63    64    63    1
    64    61    60    2
    65    44    43    1
    66    62    63    1
    67    62    59    1
    68    68    67    1
    69    60    67   am
    70    60    59    1
    71    43    46    1
    72    43    42    1
    73    59    58    1
    74    46    47    1
    75    47    48   ar
    76    47    49   ar
    77    92    90    1
    78    89    90    2
    79    89    88    1
    80    90    91    1
    81    88    87    1
    82    87    86    1
    83    86    83    1
    84   101   100    1
    85   100    99    1
    86    83    82    1
    87    83    84    1
    88    99    98    1
    89    98    97    1
    90    84    85    2
    91    97    94    1
    92    93    94    1
    93    94    95    1
    94    95    96    2
