@<TRIPOS>MOLECULE
tmp/2gq3A00.pdb
 121 113 0 0 0
SMALL
GASTEIGER

@<TRIPOS>ATOM
      1  N         53.7680   26.9860   78.5560 N.3   114  VAL114     -0.1245
      2  CA        54.1540   27.0400   79.9600 C.3   114  VAL114      0.1561
      3  C         53.4470   25.9620   80.6570 C.2   114  VAL114      0.2260
      4  O         52.2900   25.6520   80.3150 O.2   114  VAL114     -0.2867
      5  CB        53.7550   28.3910   80.6040 C.3   114  VAL114      0.0252
      6  CG1       54.3690   28.5590   82.0400 C.3   114  VAL114      0.0019
      7  CG2       54.2790   29.4860   79.7020 C.3   114  VAL114      0.0019
      8  N         54.5320   30.8960   89.1750 N.3   270  ASP270     -0.1239
      9  CA        53.0420   31.0850   89.2860 C.3   270  ASP270      0.1674
     10  C         52.1010   29.8770   88.9960 C.2   270  ASP270      0.2266
     11  O         50.9930   29.8690   89.4950 O.2   270  ASP270     -0.2867
     12  CB        52.5870   32.3320   88.5800 C.3   270  ASP270      0.1410
     13  CG        52.8790   33.5720   89.3620 C.2   270  ASP270      0.3668
     14  OD1       52.3020   34.5910   88.9900 O.co2 270  ASP270     -0.2456
     15  OD2       53.6270   33.5580   90.3770 O.co2 270  ASP270     -0.2456
     16  N         61.3840   28.2940   84.4950 N.3   335  ARG335     -0.1245
     17  CA        61.1090   29.5940   85.1420 C.3   335  ARG335      0.1563
     18  C         61.3940   29.4860   86.6560 C.2   335  ARG335      0.2260
     19  O         60.6410   28.7570   87.3690 O.2   335  ARG335     -0.2867
     20  CB        59.6140   30.0920   84.8850 C.3   335  ARG335      0.0307
     21  CG        59.2940   31.4350   85.6550 C.3   335  ARG335      0.0489
     22  CD        58.1750   32.3060   84.9530 C.3   335  ARG335      0.2205
     23  NE        56.8970   31.5980   85.1990 N.pl3 335  ARG335     -0.0865
     24  CZ        55.7010   32.0960   84.9600 C.cat 335  ARG335      0.5346
     25  NH1       55.6050   33.3320   84.4980 N.pl3 335  ARG335      0.1354
     26  NH2       54.6160   31.3840   85.2140 N.pl3 335  ARG335      0.1354
     27  N         60.8670   38.6130   82.1820 N.3   428  MET428     -0.1245
     28  CA        59.4130   38.9970   82.1480 C.3   428  MET428      0.1570
     29  C         59.3410   40.5380   82.3300 C.2   428  MET428      0.2261
     30  O         59.9600   41.1040   83.2660 O.2   428  MET428     -0.2867
     31  CB        58.6100   38.3440   83.2580 C.3   428  MET428      0.0387
     32  CG        58.6280   36.7830   83.2680 C.3   428  MET428      0.0595
     33  SD        58.1030   36.2420   81.6660 S.3   428  MET428     -0.1393
     34  CE        56.3770   36.9110   81.6590 C.3   428  MET428      0.0692
     35  N         56.7610   42.6190   83.5000 N.3   430  GLU430     -0.1245
     36  CA        55.5150   42.3840   84.1480 C.3   430  GLU430      0.1567
     37  C         55.3790   43.1770   85.4410 C.2   430  GLU430      0.2260
     38  O         54.5310   42.8580   86.2880 O.2   430  GLU430     -0.2867
     39  CB        55.3570   40.8910   84.4060 C.3   430  GLU430      0.0388
     40  CG        56.2010   40.2980   85.5650 C.3   430  GLU430      0.1160
     41  CD        55.9780   38.7630   85.5680 C.2   430  GLU430      0.3649
     42  OE1       54.9160   38.3150   85.0780 O.co2 430  GLU430     -0.2457
     43  OE2       56.8300   38.0140   86.0320 O.co2 430  GLU430     -0.2457
     44  N         54.2390   40.0120   80.5380 N.3   455  GLY455     -0.1210
     45  CA        53.4760   39.2180   81.4380 C.3   455  GLY455      0.1956
     46  C         52.3380   40.1450   81.8760 C.2   455  GLY455      0.2612
     47  O         52.3520   40.6690   82.9990 O.2   455  GLY455     -0.2717
     48  N         51.3360   40.2910   81.0240 N.am  456  PHE456     -0.1962
     49  CA        50.2810   41.3150   81.2630 C.3   456  PHE456      0.1771
     50  C         49.4410   41.1570   82.5450 C.2   456  PHE456      0.2619
     51  O         48.8810   42.1360   83.0570 O.2   456  PHE456     -0.2715
     52  CB        49.3550   41.4860   80.0240 C.3   456  PHE456      0.0574
     53  CG        48.3610   40.4000   79.8520 C.ar  456  PHE456     -0.0200
     54  CD1       47.0060   40.6470   80.0370 C.ar  456  PHE456     -0.0042
     55  CD2       48.7640   39.1270   79.4410 C.ar  456  PHE456     -0.0042
     56  CE1       46.0770   39.6130   79.8990 C.ar  456  PHE456     -0.0003
     57  CE2       47.8850   38.1090   79.2870 C.ar  456  PHE456     -0.0003
     58  CZ        46.5250   38.3340   79.5030 C.ar  456  PHE456     -0.0000
     59  N         49.3660   39.9370   83.0820 N.am  457  LEU457     -0.1963
     60  CA        48.5160   39.7040   84.2390 C.3   457  LEU457      0.1728
     61  C         49.2170   40.2150   85.4800 C.2   457  LEU457      0.2616
     62  O         48.7100   41.0490   86.2140 O.2   457  LEU457     -0.2715
     63  CB        48.2650   38.2140   84.3610 C.3   457  LEU457      0.0311
     64  CG        47.5140   37.6060   83.1970 C.3   457  LEU457      0.0022
     65  CD1       47.6790   36.0720   83.1470 C.3   457  LEU457      0.0001
     66  CD2       46.0070   38.0570   83.1260 C.3   457  LEU457      0.0001
     67  N         50.4220   39.7250   85.7420 N.am  458  ASP458     -0.1971
     68  CA        51.2210   40.3130   86.7850 C.3   458  ASP458      0.1709
     69  C         51.2720   41.8550   86.5920 C.2   458  ASP458      0.2293
     70  O         51.1970   42.6180   87.5360 O.2   458  ASP458     -0.2864
     71  CB        52.6530   39.7090   86.7760 C.3   458  ASP458      0.1436
     72  CG        52.8060   38.5650   87.7620 C.2   458  ASP458      0.3671
     73  OD1       53.4490   37.5260   87.4150 O.co2 458  ASP458     -0.2456
     74  OD2       52.3860   38.7520   88.9310 O.co2 458  ASP458     -0.2456
     75  N         51.6610   37.5860   75.8430 N.3   510  GLY510     -0.1210
     76  CA        51.1270   36.8610   76.9280 C.3   510  GLY510      0.1956
     77  C         50.1970   35.7030   76.6400 C.2   510  GLY510      0.2611
     78  O         49.9460   35.3080   75.5010 O.2   510  GLY510     -0.2717
     79  N         49.6330   35.2150   77.7360 N.am  511  MET511     -0.1979
     80  CA        48.8880   33.9810   77.7860 C.3   511  MET511      0.1605
     81  C         47.4200   34.1160   77.4090 C.2   511  MET511      0.2287
     82  O         46.7160   35.0260   77.8870 O.2   511  MET511     -0.2864
     83  CB        49.0410   33.4210   79.2300 C.3   511  MET511      0.0413
     84  CG        48.3570   32.1370   79.4950 C.3   511  MET511      0.0598
     85  SD        48.9350   30.6800   78.6240 S.3   511  MET511     -0.1393
     86  CE        50.4190   30.2820   79.6130 C.3   511  MET511      0.0692
     87  N         52.3610   33.1420   74.5930 N.3   537  TRP537     -0.1241
     88  CA        52.0820   32.0270   75.5010 C.3   537  TRP537      0.1605
     89  C         50.7460   31.3700   75.2320 C.2   537  TRP537      0.2264
     90  O         49.7320   32.0480   74.9780 O.2   537  TRP537     -0.2867
     91  CB        52.1630   32.5050   76.9250 C.3   537  TRP537      0.0550
     92  CG        53.5940   32.6870   77.3210 C.ar  537  TRP537      0.0003
     93  CD1       54.6990   32.7270   76.4840 C.ar  537  TRP537      0.0946
     94  CD2       54.0890   32.8960   78.6520 C.ar  537  TRP537      0.0152
     95  NE1       55.8480   32.8820   77.2320 N.ar  537  TRP537     -0.2442
     96  CE2       55.5080   32.9930   78.5580 C.ar  537  TRP537      0.0810
     97  CE3       53.4730   32.9740   79.9160 C.ar  537  TRP537      0.0012
     98  CZ2       56.3070   33.2410   79.6700 C.ar  537  TRP537      0.0191
     99  CZ3       54.2680   33.1720   81.0510 C.ar  537  TRP537      0.0001
    100  CH2       55.6670   33.3110   80.9320 C.ar  537  TRP537      0.0015
    101  N         41.9430   29.7410   82.9530 N.3   624  MET624     -0.1245
    102  CA        43.1790   29.3320   83.6600 C.3   624  MET624      0.1570
    103  C         43.5370   30.3180   84.7280 C.2   624  MET624      0.2261
    104  O         43.7540   31.5290   84.4000 O.2   624  MET624     -0.2867
    105  CB        44.3300   29.3360   82.6950 C.3   624  MET624      0.0387
    106  CG        45.5700   28.7070   83.2670 C.3   624  MET624      0.0595
    107  SD        46.8100   28.6100   81.9620 S.3   624  MET624     -0.1393
    108  CE        46.5980   26.8640   81.6800 C.3   624  MET624      0.0692
    109  N         46.1590   31.4560   87.8320 N.3   626  ASP626     -0.1239
    110  CA        47.4210   31.2110   88.5340 C.3   626  ASP626      0.1674
    111  C         47.6730   32.3790   89.5190 C.2   626  ASP626      0.2266
    112  O         46.8130   33.1990   89.6800 O.2   626  ASP626     -0.2867
    113  CB        48.6260   31.0160   87.5540 C.3   626  ASP626      0.1410
    114  CG        48.9780   32.3400   86.7820 C.2   626  ASP626      0.3668
    115  OD1       48.2710   33.3680   86.9550 O.co2 626  ASP626     -0.2456
    116  OD2       49.9870   32.3840   86.0130 O.co2 626  ASP626     -0.2456
    117  N         49.0740   35.2240   89.2770 N.3   628  ALA628     -0.1245
    118  CA        48.9440   36.4830   88.6450 C.3   628  ALA628      0.1562
    119  C         47.4820   36.8850   88.4070 C.2   628  ALA628      0.2260
    120  O         47.1230   38.0700   88.6780 O.2   628  ALA628     -0.2867
    121  CB        49.7020   36.4720   87.3680 C.3   628  ALA628      0.0290
@<TRIPOS>BOND
     1    87    88    1
     2    90    89    2
     3    89    88    1
     4    88    91    1
     5    78    77    2
     6    75    76    1
     7    93    95   ar
     8    93    92   ar
     9    77    76    1
    10    77    79   am
    11    91    92    1
    12    95    96   ar
    13    92    94   ar
    14    81    80    1
    15    81    82    2
    16    79    80    1
    17    80    83    1
    18     1     2    1
    19    96    94   ar
    20    96    98   ar
    21    85    84    1
    22    85    86    1
    23    94    97   ar
    24    83    84    1
    25    57    55   ar
    26    57    58   ar
    27    55    53   ar
    28    58    56   ar
    29    98   100   ar
    30     7     5    1
    31    53    52    1
    32    53    54   ar
    33    56    54   ar
    34    97    99   ar
    35     2     5    1
    36     2     3    1
    37    52    49    1
    38     4     3    2
    39    44    45    1
    40     5     6    1
    41   100    99   ar
    42    48    49    1
    43    48    46   am
    44    49    50    1
    45    45    46    1
    46    34    33    1
    47    33    32    1
    48   108   107    1
    49    46    47    2
    50   107   106    1
    51    28    27    1
    52    28    29    1
    53    28    31    1
    54    29    30    2
    55    50    51    2
    56    50    59   am
    57   105   106    1
    58   105   102    1
    59   101   102    1
    60    59    60    1
    61    66    64    1
    62    65    64    1
    63    64    63    1
    64    31    32    1
    65    35    36    1
    66   102   103    1
    67    36    39    1
    68    36    37    1
    69    60    63    1
    70    60    61    1
    71   104   103    2
    72    39    40    1
    73    16    17    1
    74    25    24    1
    75    20    17    1
    76    20    21    1
    77    22    23    1
    78    22    21    1
    79    24    23    2
    80    24    26    1
    81    42    41   ar
    82    17    18    1
    83    37    38    2
    84    61    67   am
    85    61    62    2
    86    40    41    1
    87    41    43   ar
    88    67    68    1
    89   116   114   ar
    90    69    68    1
    91    69    70    2
    92    18    19    2
    93    71    68    1
    94    71    72    1
    95   114   115   ar
    96   114   113    1
    97   121   118    1
    98    73    72   ar
    99   113   110    1
   100    72    74   ar
   101   109   110    1
   102   119   118    1
   103   119   120    2
   104   110   111    1
   105    12     9    1
   106    12    13    1
   107   118   117    1
   108    14    13   ar
   109    10     9    1
   110    10    11    2
   111     8     9    1
   112    13    15   ar
   113   111   112    2
