@<TRIPOS>MOLECULE
tmp/2gq8A00.pdb
 146 142 0 0 0
SMALL
GASTEIGER

@<TRIPOS>ATOM
      1  N          5.1070   -4.5070   -0.7940 N.3    24  PRO24      -0.2116
      2  CA         4.4610   -3.6270    0.1840 C.3    24  PRO24       0.1372
      3  C          3.0040   -4.0190    0.3790 C.2    24  PRO24       0.2244
      4  O          2.2720   -4.1640   -0.6000 O.2    24  PRO24      -0.2868
      5  CB         4.6150   -2.2440   -0.4490 C.3    24  PRO24       0.0268
      6  CG         4.6510   -2.5340   -1.9120 C.3    24  PRO24       0.0207
      7  CD         5.5230   -3.7560   -1.9930 C.3    24  PRO24       0.0892
      8  N         -0.2210   -2.9450    2.9380 N.3    26  THR26      -0.1218
      9  CA        -0.8840   -2.2160    4.0110 C.3    26  THR26       0.1862
     10  C         -1.6540   -3.2000    4.8900 C.2    26  THR26       0.2287
     11  O         -2.4450   -3.9810    4.3790 O.2    26  THR26      -0.2866
     12  CB        -1.8940   -1.2180    3.4250 C.3    26  THR26       0.1770
     13  OG1       -1.1860   -0.1970    2.7170 O.3    26  THR26      -0.2211
     14  CG2       -2.7410   -0.5850    4.5320 C.3    26  THR26       0.0375
     15  N          2.8950    0.6590    2.6100 N.3    58  GLY58      -0.1225
     16  CA         2.9900    2.0870    2.3790 C.3    58  GLY58       0.1811
     17  C          3.0270    2.8380    3.7010 C.2    58  GLY58       0.2280
     18  O          2.2870    2.5200    4.6330 O.2    58  GLY58      -0.2866
     19  N         -5.7960    5.5950    4.2940 N.3    68  TYR68      -0.1241
     20  CA        -6.5330    4.5610    5.0150 C.3    68  TYR68       0.1605
     21  C         -6.2640    4.6260    6.5050 C.2    68  TYR68       0.2264
     22  O         -5.1830    5.0160    6.9390 O.2    68  TYR68      -0.2867
     23  CB        -6.1290    3.1780    4.4920 C.3    68  TYR68       0.0534
     24  CG        -6.2450    3.0590    2.9910 C.ar   68  TYR68      -0.0201
     25  CD1       -7.3750    2.4980    2.3950 C.ar   68  TYR68      -0.0009
     26  CD2       -5.2460    3.5650    2.1680 C.ar   68  TYR68      -0.0009
     27  CE1       -7.5060    2.4510    1.0100 C.ar   68  TYR68       0.0417
     28  CE2       -5.3640    3.5290    0.7890 C.ar   68  TYR68       0.0417
     29  CZ        -6.4880    2.9780    0.2160 C.ar   68  TYR68       0.1957
     30  OH        -6.5940    2.9850   -1.1460 O.3    68  TYR68      -0.2866
     31  N          8.3310    1.8980    1.9230 N.3   100  GLN100     -0.1245
     32  CA         7.6010    2.4300    0.7710 C.3   100  GLN100      0.1566
     33  C          7.0070    3.7790    1.1440 C.2   100  GLN100      0.2260
     34  O          6.0250    3.8550    1.8880 O.2   100  GLN100     -0.2867
     35  CB         6.4680    1.5030    0.3050 C.3   100  GLN100      0.0367
     36  CG         5.8020    2.0650   -0.9660 C.3   100  GLN100      0.0905
     37  CD         4.5810    1.2990   -1.4230 C.2   100  GLN100      0.2608
     38  OE1        3.5830    1.2070   -0.7040 O.2   100  GLN100     -0.2717
     39  NE2        4.6490    0.7560   -2.6370 N.am  100  GLN100     -0.0878
     40  N          4.8260    6.8100    0.8800 N.3   102  TRP102     -0.1241
     41  CA         3.4880    6.9460    0.3320 C.3   102  TRP102      0.1605
     42  C          2.7760    8.2870    0.4110 C.2   102  TRP102      0.2264
     43  O          2.8030    8.9560    1.4430 O.2   102  TRP102     -0.2867
     44  CB         2.6320    5.9120    1.0650 C.3   102  TRP102      0.0550
     45  CG         1.3690    5.4470    0.4200 C.ar  102  TRP102      0.0003
     46  CD1        0.9920    5.5770   -0.8920 C.ar  102  TRP102      0.0946
     47  CD2        0.3660    4.6420    1.0490 C.ar  102  TRP102      0.0152
     48  NE1       -0.1830    4.8920   -1.1140 N.ar  102  TRP102     -0.2442
     49  CE2       -0.5870    4.3080    0.0630 C.ar  102  TRP102      0.0810
     50  CE3        0.1850    4.1640    2.3570 C.ar  102  TRP102      0.0012
     51  CZ2       -1.7060    3.5100    0.3380 C.ar  102  TRP102      0.0191
     52  CZ3       -0.9240    3.3710    2.6350 C.ar  102  TRP102      0.0001
     53  CH2       -1.8590    3.0500    1.6270 C.ar  102  TRP102      0.0015
     54  N        -11.0180    3.3230    3.6590 N.3   132  PHE132     -0.1241
     55  CA       -11.6910    3.0720    4.9220 C.3   132  PHE132      0.1605
     56  C        -11.1660    4.0000    5.9950 C.2   132  PHE132      0.2264
     57  O        -10.0050    4.4210    5.9690 O.2   132  PHE132     -0.2867
     58  CB       -11.5950    1.5890    5.3370 C.3   132  PHE132      0.0534
     59  CG       -10.1890    1.0550    5.4690 C.ar  132  PHE132     -0.0203
     60  CD1       -9.4150    1.3350    6.5960 C.ar  132  PHE132     -0.0042
     61  CD2       -9.6630    0.2210    4.4860 C.ar  132  PHE132     -0.0042
     62  CE1       -8.1350    0.7830    6.7390 C.ar  132  PHE132     -0.0003
     63  CE2       -8.3880   -0.3320    4.6230 C.ar  132  PHE132     -0.0003
     64  CZ        -7.6280   -0.0490    5.7520 C.ar  132  PHE132     -0.0000
     65  N          6.2940    4.9790   -3.9130 N.3   181  HIS181     -0.1241
     66  CA         5.0420    4.4440   -4.4320 C.3   181  HIS181      0.1621
     67  C          4.5330    5.4100   -5.5000 C.2   181  HIS181      0.2264
     68  O          3.9940    6.4720   -5.1790 O.2   181  HIS181     -0.2867
     69  CB         3.9880    4.3290   -3.3290 C.3   181  HIS181      0.0745
     70  CG         2.8420    3.4360   -3.6870 C.ar  181  HIS181      0.0817
     71  ND1        2.5690    3.0630   -4.9850 N.ar  181  HIS181     -0.2268
     72  CD2        1.9170    2.8190   -2.9140 C.ar  181  HIS181      0.1154
     73  CE1        1.5250    2.2510   -4.9960 C.ar  181  HIS181      0.1986
     74  NE2        1.1110    2.0870   -3.7530 N.ar  181  HIS181     -0.2212
     75  N         -0.4040    2.1710   -8.3900 N.3   184  ASN184     -0.1240
     76  CA        -1.7630    1.9120   -7.9470 C.3   184  ASN184      0.1653
     77  C         -2.7070    3.0780   -7.7310 C.2   184  ASN184      0.2266
     78  O         -3.4950    3.0920   -6.7870 O.2   184  ASN184     -0.2867
     79  CB        -1.7100    1.0160   -6.7140 C.3   184  ASN184      0.1155
     80  CG        -0.9590   -0.2710   -6.9920 C.2   184  ASN184      0.2627
     81  OD1       -0.8310   -0.6790   -8.1470 O.2   184  ASN184     -0.2716
     82  ND2       -0.4740   -0.9240   -5.9470 N.am  184  ASN184     -0.0877
     83  N         -2.1370    6.2040   -6.8870 N.3   186  TYR186     -0.1241
     84  CA        -1.9050    7.2030   -5.8640 C.3   186  TYR186      0.1605
     85  C         -1.3630    8.5240   -6.4100 C.2   186  TYR186      0.2264
     86  O         -1.3880    8.7300   -7.6230 O.2   186  TYR186     -0.2867
     87  CB        -1.0790    6.5900   -4.7350 C.3   186  TYR186      0.0534
     88  CG        -1.8920    5.5000   -4.0650 C.ar  186  TYR186     -0.0201
     89  CD1       -1.5340    4.1570   -4.1830 C.ar  186  TYR186     -0.0009
     90  CD2       -3.0770    5.8050   -3.3890 C.ar  186  TYR186     -0.0009
     91  CE1       -2.3360    3.1510   -3.6560 C.ar  186  TYR186      0.0417
     92  CE2       -3.8870    4.8020   -2.8540 C.ar  186  TYR186      0.0417
     93  CZ        -3.5100    3.4710   -2.9940 C.ar  186  TYR186      0.1957
     94  OH        -4.3240    2.4670   -2.5010 O.3   186  TYR186     -0.2866
     95  N          8.0780    2.1690   -7.5950 N.3   233  ARG233     -0.1245
     96  CA         7.0300    1.2390   -8.0230 C.3   233  ARG233      0.1563
     97  C          6.0740    1.9140   -9.0010 C.2   233  ARG233      0.2260
     98  O          5.6270    3.0350   -8.7600 O.2   233  ARG233     -0.2867
     99  CB         6.2300    0.7090   -6.8240 C.3   233  ARG233      0.0307
    100  CG         5.4010   -0.5220   -7.1930 C.3   233  ARG233      0.0489
    101  CD         4.7450   -1.2070   -5.9980 C.3   233  ARG233      0.2205
    102  NE         4.6810   -2.6560   -6.2100 N.pl3 233  ARG233     -0.0865
    103  CZ         3.7610   -3.4750   -5.7040 C.cat 233  ARG233      0.5346
    104  NH1        2.7780   -3.0170   -4.9410 N.pl3 233  ARG233      0.1354
    105  NH2        3.8420   -4.7780   -5.9520 N.pl3 233  ARG233      0.1354
    106  N         -7.7480    1.8300   -8.9830 N.3   241  ASN241     -0.1240
    107  CA        -7.9940    3.0350   -8.1980 C.3   241  ASN241      0.1653
    108  C         -8.3390    4.2880   -9.0000 C.2   241  ASN241      0.2266
    109  O         -8.2700    5.4050   -8.4870 O.2   241  ASN241     -0.2867
    110  CB        -6.8240    3.3220   -7.2510 C.3   241  ASN241      0.1155
    111  CG        -6.9180    2.5210   -5.9620 C.2   241  ASN241      0.2627
    112  OD1       -8.0150    2.2930   -5.4480 O.2   241  ASN241     -0.2716
    113  ND2       -5.7750    2.1020   -5.4280 N.am  241  ASN241     -0.0877
    114  N         -3.4800   -5.7750   -9.2550 N.3   273  ASP273     -0.1225
    115  CA        -3.8990   -5.0840   -8.0490 C.3   273  ASP273      0.1805
    116  C         -5.2210   -5.7610   -7.7090 C.2   273  ASP273      0.2597
    117  O         -6.2140   -5.5660   -8.4070 O.2   273  ASP273     -0.2718
    118  CB        -4.1070   -3.5920   -8.2940 C.3   273  ASP273      0.1424
    119  CG        -4.0520   -2.7880   -7.0070 C.2   273  ASP273      0.3668
    120  OD1       -4.6590   -1.7000   -6.9620 O.co2 273  ASP273     -0.2456
    121  OD2       -3.3860   -3.2440   -6.0420 O.co2 273  ASP273     -0.2456
    122  N         -5.2130   -6.5730   -6.6540 N.am  274  TRP274     -0.1976
    123  CA        -6.3910   -7.3290   -6.2300 C.3   274  TRP274      0.1640
    124  C         -6.8370   -8.2480   -7.3640 C.2   274  TRP274      0.2290
    125  O         -6.1450   -9.2160   -7.6670 O.2   274  TRP274     -0.2864
    126  CB        -7.5160   -6.3790   -5.8020 C.3   274  TRP274      0.0576
    127  CG        -7.1510   -5.6110   -4.5670 C.ar  274  TRP274      0.0006
    128  CD1       -6.8180   -4.2910   -4.4890 C.ar  274  TRP274      0.0946
    129  CD2       -7.0420   -6.1330   -3.2350 C.ar  274  TRP274      0.0152
    130  NE1       -6.5060   -3.9550   -3.1910 N.ar  274  TRP274     -0.2442
    131  CE2       -6.6360   -5.0670   -2.4020 C.ar  274  TRP274      0.0810
    132  CE3       -7.2470   -7.3980   -2.6670 C.ar  274  TRP274      0.0012
    133  CZ2       -6.4340   -5.2280   -1.0240 C.ar  274  TRP274      0.0191
    134  CZ3       -7.0460   -7.5560   -1.3000 C.ar  274  TRP274      0.0001
    135  CH2       -6.6430   -6.4750   -0.4950 C.ar  274  TRP274      0.0015
    136  N         -6.8840   -5.9700    7.2220 N.3   350  PHE350     -0.1241
    137  CA        -6.7550   -4.6220    7.7710 C.3   350  PHE350      0.1605
    138  C         -7.2930   -4.4320    9.1740 C.2   350  PHE350      0.2264
    139  O         -8.3760   -4.9170    9.5170 O.2   350  PHE350     -0.2867
    140  CB        -7.4680   -3.6140    6.8640 C.3   350  PHE350      0.0534
    141  CG        -7.1130   -3.7390    5.4170 C.ar  350  PHE350     -0.0203
    142  CD1       -8.0400   -4.2210    4.4980 C.ar  350  PHE350     -0.0042
    143  CD2       -5.8480   -3.3840    4.9680 C.ar  350  PHE350     -0.0042
    144  CE1       -7.7160   -4.3470    3.1480 C.ar  350  PHE350     -0.0003
    145  CE2       -5.5120   -3.5040    3.6250 C.ar  350  PHE350     -0.0003
    146  CZ        -6.4470   -3.9890    2.7070 C.ar  350  PHE350     -0.0000
@<TRIPOS>BOND
     1   114   115    1
     2    97    98    2
     3    97    96    1
     4   108   109    2
     5   108   107    1
     6   106   107    1
     7   117   116    2
     8    75    76    1
     9   118   115    1
    10   118   119    1
    11   107   110    1
    12    81    80    2
    13   115   116    1
    14    96    95    1
    15    96    99    1
    16    76    77    1
    17    76    79    1
    18    77    78    2
    19   116   122   am
    20   125   124    2
    21    86    85    2
    22   124   123    1
    23   110   111    1
    24   100    99    1
    25   100   101    1
    26   119   120   ar
    27   119   121   ar
    28    80    79    1
    29    80    82   am
    30    83    84    1
    31   122   123    1
    32    85    84    1
    33   123   126    1
    34   102   101    1
    35   102   103    2
    36   111   112    2
    37   111   113   am
    38   105   103    1
    39    84    87    1
    40   126   127    1
    41   103   104    1
    42    67    68    2
    43    67    66    1
    44    73    71   ar
    45    73    74   ar
    46    71    70   ar
    47    87    88    1
    48   127   128   ar
    49   127   129   ar
    50   128   130   ar
    51    66    65    1
    52    66    69    1
    53    89    88   ar
    54    89    91   ar
    55    88    90   ar
    56    74    72   ar
    57    70    69    1
    58    70    72   ar
    59    91    93   ar
    60    90    92   ar
    61   129   132   ar
    62   129   131   ar
    63   130   131   ar
    64    93    92   ar
    65    93    94    1
    66   132   134   ar
    67    39    37   am
    68   131   133   ar
    69     7     6    1
    70     7     1    1
    71     6     5    1
    72    37    36    1
    73    37    38    2
    74   134   135   ar
    75    30    29    1
    76    48    46   ar
    77    48    49   ar
    78   133   135   ar
    79    36    35    1
    80    46    45   ar
    81     1     2    1
    82     4     3    2
    83     5     2    1
    84    49    51   ar
    85    49    47   ar
    86     2     3    1
    87    29    28   ar
    88    29    27   ar
    89    35    32    1
    90    41    42    1
    91    41    40    1
    92    41    44    1
    93    51    53   ar
    94    42    43    2
    95    45    47   ar
    96    45    44    1
    97    32    33    1
    98    32    31    1
    99    28    26   ar
   100    27    25   ar
   101    47    50   ar
   102    33    34    2
   103    53    52   ar
   104    26    24   ar
   105    50    52   ar
   106    16    15    1
   107    16    17    1
   108    25    24   ar
   109   146   144   ar
   110   146   145   ar
   111    13    12    1
   112     8     9    1
   113    24    23    1
   114   144   142   ar
   115    12     9    1
   116    12    14    1
   117   145   143   ar
   118    54    55    1
   119    17    18    2
   120     9    10    1
   121    19    20    1
   122    11    10    2
   123    61    63   ar
   124    61    59   ar
   125    23    20    1
   126   142   141   ar
   127    63    64   ar
   128    55    58    1
   129    55    56    1
   130   143   141   ar
   131    20    21    1
   132    58    59    1
   133   141   140    1
   134    59    60   ar
   135    64    62   ar
   136    57    56    2
   137    21    22    2
   138    60    62   ar
   139   140   137    1
   140   136   137    1
   141   137   138    1
   142   138   139    2
