@<TRIPOS>MOLECULE
tmp/2gq8A01.pdb
 238 236 0 0 0
SMALL
GASTEIGER

@<TRIPOS>ATOM
      1  N          6.3290   -7.9380   -1.2440 N.3    23  PRO23      -0.2103
      2  CA         5.9000   -6.6190   -1.7160 C.3    23  PRO23       0.1489
      3  C          5.2020   -5.8330   -0.6250 C.2    23  PRO23       0.2418
      4  O          4.7520   -6.4010    0.3640 O.2    23  PRO23      -0.2734
      5  CB         4.9800   -6.9640   -2.8840 C.3    23  PRO23       0.0282
      6  CG         4.2900   -8.1950   -2.3700 C.3    23  PRO23       0.0208
      7  CD         5.4060   -8.9900   -1.7200 C.3    23  PRO23       0.0893
      8  N          5.1070   -4.5070   -0.7940 N.am   24  PRO24      -0.2718
      9  CA         4.4610   -3.6270    0.1840 C.3    24  PRO24       0.1535
     10  C          3.0040   -4.0190    0.3790 C.2    24  PRO24       0.2598
     11  O          2.2720   -4.1640   -0.6000 O.2    24  PRO24      -0.2715
     12  CB         4.6150   -2.2440   -0.4490 C.3    24  PRO24       0.0310
     13  CG         4.6510   -2.5340   -1.9120 C.3    24  PRO24       0.0237
     14  CD         5.5230   -3.7560   -1.9930 C.3    24  PRO24       0.0939
     15  N          2.5920   -4.2080    1.6310 N.am   25  MET25      -0.1964
     16  CA         1.2070   -4.5690    1.9090 C.3    25  MET25       0.1736
     17  C          0.6610   -3.9090    3.1610 C.2    25  MET25       0.2617
     18  O          1.0390   -4.2410    4.2820 O.2    25  MET25      -0.2715
     19  CB         1.0430   -6.0890    2.0130 C.3    25  MET25       0.0427
     20  CG         1.2170   -6.7790    0.6730 C.3    25  MET25       0.0599
     21  SD         0.9870   -8.5700    0.7640 S.3    25  MET25      -0.1393
     22  CE         2.4510   -9.0520    1.7410 C.3    25  MET25       0.0692
     23  N         -0.2210   -2.9450    2.9380 N.am   26  THR26      -0.1937
     24  CA        -0.8840   -2.2160    4.0110 C.3    26  THR26       0.2028
     25  C         -1.6540   -3.2000    4.8900 C.2    26  THR26       0.2642
     26  O         -2.4450   -3.9810    4.3790 O.2    26  THR26      -0.2714
     27  CB        -1.8940   -1.2180    3.4250 C.3    26  THR26       0.1808
     28  OG1       -1.1860   -0.1970    2.7170 O.3    26  THR26      -0.2208
     29  CG2       -2.7410   -0.5850    4.5320 C.3    26  THR26       0.0379
     30  N         -1.4180   -3.1610    6.2000 N.am   27  ARG27      -0.1977
     31  CA        -2.1270   -4.0390    7.1270 C.3    27  ARG27       0.1597
     32  C         -2.8900   -3.2160    8.1670 C.2    27  ARG27       0.2287
     33  O         -3.6510   -3.7600    8.9730 O.2    27  ARG27      -0.2864
     34  CB        -1.1540   -5.0000    7.8190 C.3    27  ARG27       0.0334
     35  CG        -0.3240   -5.8480    6.8550 C.3    27  ARG27       0.0492
     36  CD        -1.1880   -6.6280    5.8670 C.3    27  ARG27       0.2205
     37  NE        -2.1720   -7.4670    6.5540 N.pl3  27  ARG27      -0.0865
     38  CZ        -1.9170   -8.6760    7.0490 C.cat  27  ARG27       0.5346
     39  NH1       -0.7070   -9.2130    6.9260 N.pl3  27  ARG27       0.1354
     40  NH2       -2.8680   -9.3340    7.7010 N.pl3  27  ARG27       0.1354
     41  N          2.8950    0.6590    2.6100 N.3    58  GLY58      -0.1225
     42  CA         2.9900    2.0870    2.3790 C.3    58  GLY58       0.1811
     43  C          3.0270    2.8380    3.7010 C.2    58  GLY58       0.2280
     44  O          2.2870    2.5200    4.6330 O.2    58  GLY58      -0.2866
     45  N          8.3310    1.8980    1.9230 N.3   100  GLN100     -0.1245
     46  CA         7.6010    2.4300    0.7710 C.3   100  GLN100      0.1566
     47  C          7.0070    3.7790    1.1440 C.2   100  GLN100      0.2260
     48  O          6.0250    3.8550    1.8880 O.2   100  GLN100     -0.2867
     49  CB         6.4680    1.5030    0.3050 C.3   100  GLN100      0.0367
     50  CG         5.8020    2.0650   -0.9660 C.3   100  GLN100      0.0905
     51  CD         4.5810    1.2990   -1.4230 C.2   100  GLN100      0.2608
     52  OE1        3.5830    1.2070   -0.7040 O.2   100  GLN100     -0.2717
     53  NE2        4.6490    0.7560   -2.6370 N.am  100  GLN100     -0.0878
     54  N          4.8260    6.8100    0.8800 N.3   102  TRP102     -0.1241
     55  CA         3.4880    6.9460    0.3320 C.3   102  TRP102      0.1605
     56  C          2.7760    8.2870    0.4110 C.2   102  TRP102      0.2264
     57  O          2.8030    8.9560    1.4430 O.2   102  TRP102     -0.2867
     58  CB         2.6320    5.9120    1.0650 C.3   102  TRP102      0.0550
     59  CG         1.3690    5.4470    0.4200 C.ar  102  TRP102      0.0003
     60  CD1        0.9920    5.5770   -0.8920 C.ar  102  TRP102      0.0946
     61  CD2        0.3660    4.6420    1.0490 C.ar  102  TRP102      0.0152
     62  NE1       -0.1830    4.8920   -1.1140 N.ar  102  TRP102     -0.2442
     63  CE2       -0.5870    4.3080    0.0630 C.ar  102  TRP102      0.0810
     64  CE3        0.1850    4.1640    2.3570 C.ar  102  TRP102      0.0012
     65  CZ2       -1.7060    3.5100    0.3380 C.ar  102  TRP102      0.0191
     66  CZ3       -0.9240    3.3710    2.6350 C.ar  102  TRP102      0.0001
     67  CH2       -1.8590    3.0500    1.6270 C.ar  102  TRP102      0.0015
     68  N          6.2940    4.9790   -3.9130 N.3   181  HIS181     -0.1241
     69  CA         5.0420    4.4440   -4.4320 C.3   181  HIS181      0.1621
     70  C          4.5330    5.4100   -5.5000 C.2   181  HIS181      0.2264
     71  O          3.9940    6.4720   -5.1790 O.2   181  HIS181     -0.2867
     72  CB         3.9880    4.3290   -3.3290 C.3   181  HIS181      0.0745
     73  CG         2.8420    3.4360   -3.6870 C.ar  181  HIS181      0.0817
     74  ND1        2.5690    3.0630   -4.9850 N.ar  181  HIS181     -0.2268
     75  CD2        1.9170    2.8190   -2.9140 C.ar  181  HIS181      0.1154
     76  CE1        1.5250    2.2510   -4.9960 C.ar  181  HIS181      0.1986
     77  NE2        1.1110    2.0870   -3.7530 N.ar  181  HIS181     -0.2212
     78  N         -0.4040    2.1710   -8.3900 N.3   184  ASN184     -0.1240
     79  CA        -1.7630    1.9120   -7.9470 C.3   184  ASN184      0.1653
     80  C         -2.7070    3.0780   -7.7310 C.2   184  ASN184      0.2266
     81  O         -3.4950    3.0920   -6.7870 O.2   184  ASN184     -0.2867
     82  CB        -1.7100    1.0160   -6.7140 C.3   184  ASN184      0.1155
     83  CG        -0.9590   -0.2710   -6.9920 C.2   184  ASN184      0.2627
     84  OD1       -0.8310   -0.6790   -8.1470 O.2   184  ASN184     -0.2716
     85  ND2       -0.4740   -0.9240   -5.9470 N.am  184  ASN184     -0.0877
     86  N         -2.1370    6.2040   -6.8870 N.3   186  TYR186     -0.1241
     87  CA        -1.9050    7.2030   -5.8640 C.3   186  TYR186      0.1605
     88  C         -1.3630    8.5240   -6.4100 C.2   186  TYR186      0.2264
     89  O         -1.3880    8.7300   -7.6230 O.2   186  TYR186     -0.2867
     90  CB        -1.0790    6.5900   -4.7350 C.3   186  TYR186      0.0534
     91  CG        -1.8920    5.5000   -4.0650 C.ar  186  TYR186     -0.0201
     92  CD1       -1.5340    4.1570   -4.1830 C.ar  186  TYR186     -0.0009
     93  CD2       -3.0770    5.8050   -3.3890 C.ar  186  TYR186     -0.0009
     94  CE1       -2.3360    3.1510   -3.6560 C.ar  186  TYR186      0.0417
     95  CE2       -3.8870    4.8020   -2.8540 C.ar  186  TYR186      0.0417
     96  CZ        -3.5100    3.4710   -2.9940 C.ar  186  TYR186      0.1957
     97  OH        -4.3240    2.4670   -2.5010 O.3   186  TYR186     -0.2866
     98  N          8.0780    2.1690   -7.5950 N.3   233  ARG233     -0.1245
     99  CA         7.0300    1.2390   -8.0230 C.3   233  ARG233      0.1563
    100  C          6.0740    1.9140   -9.0010 C.2   233  ARG233      0.2260
    101  O          5.6270    3.0350   -8.7600 O.2   233  ARG233     -0.2867
    102  CB         6.2300    0.7090   -6.8240 C.3   233  ARG233      0.0307
    103  CG         5.4010   -0.5220   -7.1930 C.3   233  ARG233      0.0489
    104  CD         4.7450   -1.2070   -5.9980 C.3   233  ARG233      0.2205
    105  NE         4.6810   -2.6560   -6.2100 N.pl3 233  ARG233     -0.0865
    106  CZ         3.7610   -3.4750   -5.7040 C.cat 233  ARG233      0.5346
    107  NH1        2.7780   -3.0170   -4.9410 N.pl3 233  ARG233      0.1354
    108  NH2        3.8420   -4.7780   -5.9520 N.pl3 233  ARG233      0.1354
    109  N          3.9040   -3.2520  -10.4530 N.3   270  ALA270     -0.1245
    110  CA         2.7310   -3.8570   -9.8170 C.3   270  ALA270      0.1562
    111  C          1.8660   -4.3030  -10.9940 C.2   270  ALA270      0.2260
    112  O          1.1610   -3.5020  -11.6120 O.2   270  ALA270     -0.2867
    113  CB         1.9980   -2.8280   -8.9630 C.3   270  ALA270      0.0290
    114  N         -0.5720   -6.7360  -10.9890 N.3   272  VAL272     -0.1231
    115  CA        -1.9400   -7.0520  -10.6230 C.3   272  VAL272      0.1692
    116  C         -2.2490   -6.2610   -9.3630 C.2   272  VAL272      0.2592
    117  O         -1.3750   -6.0570   -8.5230 O.2   272  VAL272     -0.2718
    118  CB        -2.0940   -8.5660  -10.2990 C.3   272  VAL272      0.0266
    119  CG1       -3.5020   -8.8610   -9.7690 C.3   272  VAL272      0.0020
    120  CG2       -1.8070   -9.4000  -11.5440 C.3   272  VAL272      0.0020
    121  N         -3.4800   -5.7750   -9.2550 N.am  273  ASP273     -0.1960
    122  CA        -3.8990   -5.0840   -8.0490 C.3   273  ASP273      0.1840
    123  C         -5.2210   -5.7610   -7.7090 C.2   273  ASP273      0.2622
    124  O         -6.2140   -5.5660   -8.4070 O.2   273  ASP273     -0.2715
    125  CB        -4.1070   -3.5920   -8.2940 C.3   273  ASP273      0.1450
    126  CG        -4.0520   -2.7880   -7.0070 C.2   273  ASP273      0.3671
    127  OD1       -4.6590   -1.7000   -6.9620 O.co2 273  ASP273     -0.2456
    128  OD2       -3.3860   -3.2440   -6.0420 O.co2 273  ASP273     -0.2456
    129  N         -5.2130   -6.5730   -6.6540 N.am  274  TRP274     -0.1974
    130  CA        -6.3910   -7.3290   -6.2300 C.3   274  TRP274      0.1640
    131  C         -6.8370   -8.2480   -7.3640 C.2   274  TRP274      0.2290
    132  O         -6.1450   -9.2160   -7.6670 O.2   274  TRP274     -0.2864
    133  CB        -7.5160   -6.3790   -5.8020 C.3   274  TRP274      0.0576
    134  CG        -7.1510   -5.6110   -4.5670 C.ar  274  TRP274      0.0006
    135  CD1       -6.8180   -4.2910   -4.4890 C.ar  274  TRP274      0.0946
    136  CD2       -7.0420   -6.1330   -3.2350 C.ar  274  TRP274      0.0152
    137  NE1       -6.5060   -3.9550   -3.1910 N.ar  274  TRP274     -0.2442
    138  CE2       -6.6360   -5.0670   -2.4020 C.ar  274  TRP274      0.0810
    139  CE3       -7.2470   -7.3980   -2.6670 C.ar  274  TRP274      0.0012
    140  CZ2       -6.4340   -5.2280   -1.0240 C.ar  274  TRP274      0.0191
    141  CZ3       -7.0460   -7.5560   -1.3000 C.ar  274  TRP274      0.0001
    142  CH2       -6.6430   -6.4750   -0.4950 C.ar  274  TRP274      0.0015
    143  N          5.3700   -8.0680   -9.4200 N.3   299  ALA299     -0.1231
    144  CA         4.5120   -8.7070   -8.4260 C.3   299  ALA299      0.1694
    145  C          3.0940   -8.7220   -8.9780 C.2   299  ALA299      0.2593
    146  O          2.6780   -7.7700   -9.6460 O.2   299  ALA299     -0.2718
    147  CB         4.5570   -7.9520   -7.0920 C.3   299  ALA299      0.0304
    148  N          2.3630   -9.8030   -8.7090 N.am  300  GLY300     -0.1942
    149  CA         0.9910   -9.9030   -9.1880 C.3   300  GLY300      0.2014
    150  C          0.6320  -11.2970   -9.6730 C.2   300  GLY300      0.2639
    151  O          0.9450  -11.6820  -10.8120 O.2   300  GLY300     -0.2714
    152  N         -0.0340  -12.0460   -8.7970 N.am  301  ARG301     -0.1963
    153  CA        -0.4680  -13.4090   -9.0790 C.3   301  ARG301      0.1729
    154  C          0.6130  -14.3680   -9.5380 C.2   301  ARG301      0.2616
    155  O          0.3480  -15.2690  -10.3390 O.2   301  ARG301     -0.2715
    156  CB        -1.6000  -13.4060  -10.1090 C.3   301  ARG301      0.0348
    157  CG        -2.8850  -12.7530   -9.6180 C.3   301  ARG301      0.0492
    158  CD        -3.4280  -13.4430   -8.3710 C.3   301  ARG301      0.2205
    159  NE        -4.8060  -13.0390   -8.0980 N.pl3 301  ARG301     -0.0865
    160  CZ        -5.4370  -13.2300   -6.9430 C.cat 301  ARG301      0.5346
    161  NH1       -4.8180  -13.8190   -5.9270 N.pl3 301  ARG301      0.1354
    162  NH2       -6.7010  -12.8390   -6.8120 N.pl3 301  ARG301      0.1354
    163  N          1.8350  -14.1890   -9.0480 N.am  302  TYR302     -0.1974
    164  CA         2.8910  -15.1270   -9.4130 C.3   302  TYR302      0.1639
    165  C          2.8560  -16.3550   -8.5160 C.2   302  TYR302      0.2290
    166  O          2.5000  -16.2680   -7.3430 O.2   302  TYR302     -0.2864
    167  CB         4.2730  -14.4730   -9.2600 C.3   302  TYR302      0.0560
    168  CG         4.6420  -13.6080  -10.4220 C.ar  302  TYR302     -0.0198
    169  CD1        5.3100  -14.1460  -11.5230 C.ar  302  TYR302     -0.0009
    170  CD2        4.2570  -12.2640  -10.4650 C.ar  302  TYR302     -0.0009
    171  CE1        5.5800  -13.3810  -12.6310 C.ar  302  TYR302      0.0417
    172  CE2        4.5210  -11.4890  -11.5790 C.ar  302  TYR302      0.0417
    173  CZ         5.1790  -12.0580  -12.6610 C.ar  302  TYR302      0.1957
    174  OH         5.4030  -11.3230  -13.7900 O.3   302  TYR302     -0.2866
    175  N          7.8690  -10.5740   -6.5490 N.3   320  GLY320     -0.1210
    176  CA         7.1960  -10.3840   -5.2830 C.3   320  GLY320      0.1956
    177  C          5.9530  -11.2590   -5.2000 C.2   320  GLY320      0.2612
    178  O          5.2860  -11.5040   -6.2050 O.2   320  GLY320     -0.2717
    179  N          5.6740  -11.7570   -4.0010 N.am  321  PHE321     -0.1962
    180  CA         4.5000  -12.5970   -3.7280 C.3   321  PHE321      0.1771
    181  C          3.8260  -11.8870   -2.5720 C.2   321  PHE321      0.2620
    182  O          4.3780  -11.8210   -1.4720 O.2   321  PHE321     -0.2715
    183  CB         4.9260  -13.9980   -3.2880 C.3   321  PHE321      0.0574
    184  CG         5.7160  -14.7390   -4.3190 C.ar  321  PHE321     -0.0200
    185  CD1        5.0740  -15.5710   -5.2320 C.ar  321  PHE321     -0.0042
    186  CD2        7.0990  -14.6040   -4.3860 C.ar  321  PHE321     -0.0042
    187  CE1        5.7970  -16.2620   -6.1970 C.ar  321  PHE321     -0.0003
    188  CE2        7.8380  -15.2940   -5.3550 C.ar  321  PHE321     -0.0003
    189  CZ         7.1820  -16.1250   -6.2580 C.ar  321  PHE321     -0.0000
    190  N          2.6390  -11.3460   -2.8270 N.am  322  GLY322     -0.1940
    191  CA         1.9370  -10.5960   -1.8020 C.3   322  GLY322      0.2014
    192  C          1.0360  -11.4180   -0.9090 C.2   322  GLY322      0.2639
    193  O          1.4100  -11.7940    0.1980 O.2   322  GLY322     -0.2714
    194  N         -0.1630  -11.7020   -1.3960 N.am  323  ARG323     -0.1963
    195  CA        -1.1060  -12.4660   -0.6040 C.3   323  ARG323      0.1714
    196  C         -0.5190  -13.7660   -0.0640 C.2   323  ARG323      0.2458
    197  O         -0.7720  -14.1230    1.0910 O.2   323  ARG323     -0.2730
    198  CB        -2.3870  -12.6600   -1.4100 C.3   323  ARG323      0.0347
    199  CG        -3.1620  -11.3370   -1.4350 C.3   323  ARG323      0.0492
    200  CD        -4.2140  -11.2300   -2.5290 C.3   323  ARG323      0.2205
    201  NE        -3.6210  -10.9640   -3.8370 N.pl3 323  ARG323     -0.0865
    202  CZ        -4.3260  -10.6570   -4.9220 C.cat 323  ARG323      0.5346
    203  NH1       -3.7090  -10.4280   -6.0780 N.pl3 323  ARG323      0.1354
    204  NH2       -5.6520  -10.5750   -4.8500 N.pl3 323  ARG323      0.1354
    205  N          0.2920  -14.4790   -0.8670 N.am  324  PRO324     -0.2727
    206  CA         0.8530  -15.7140   -0.3130 C.3   324  PRO324      0.1402
    207  C          1.7680  -15.4460    0.8910 C.2   324  PRO324      0.2269
    208  O          1.8630  -16.2770    1.7940 O.2   324  PRO324     -0.2865
    209  CB         1.6160  -16.3080   -1.4950 C.3   324  PRO324      0.0296
    210  CG         0.7730  -15.8780   -2.6670 C.3   324  PRO324      0.0237
    211  CD         0.5000  -14.4230   -2.3260 C.3   324  PRO324      0.0939
    212  N          1.3160  -13.1650    3.1050 N.3   326  ILE326     -0.1245
    213  CA         0.5200  -12.8330    4.2680 C.3   326  ILE326      0.1561
    214  C          0.2390  -14.1020    5.0640 C.2   326  ILE326      0.2260
    215  O          0.4210  -14.1440    6.2840 O.2   326  ILE326     -0.2867
    216  CB        -0.8250  -12.1730    3.8480 C.3   326  ILE326      0.0252
    217  CG1       -0.5430  -10.7890    3.2480 C.3   326  ILE326      0.0019
    218  CG2       -1.7770  -12.0720    5.0500 C.3   326  ILE326      0.0019
    219  CD1       -1.7710  -10.0340    2.8070 C.3   326  ILE326      0.0001
    220  N         -7.1280   -8.7360    6.9630 N.3   349  LEU349     -0.1231
    221  CA        -6.0690   -8.0390    6.2420 C.3   349  LEU349      0.1693
    222  C         -5.8110   -6.6680    6.8530 C.2   349  LEU349      0.2592
    223  O         -4.6590   -6.2460    6.9810 O.2   349  LEU349     -0.2718
    224  CB        -6.4430   -7.8540    4.7710 C.3   349  LEU349      0.0284
    225  CG        -6.4010   -9.1000    3.8860 C.3   349  LEU349      0.0019
    226  CD1       -6.9440   -8.7550    2.5130 C.3   349  LEU349      0.0001
    227  CD2       -4.9580   -9.6300    3.7800 C.3   349  LEU349      0.0001
    228  N         -6.8840   -5.9700    7.2220 N.am  350  PHE350     -0.1976
    229  CA        -6.7550   -4.6220    7.7710 C.3   350  PHE350      0.1639
    230  C         -7.2930   -4.4320    9.1740 C.2   350  PHE350      0.2290
    231  O         -8.3760   -4.9170    9.5170 O.2   350  PHE350     -0.2864
    232  CB        -7.4680   -3.6140    6.8640 C.3   350  PHE350      0.0560
    233  CG        -7.1130   -3.7390    5.4170 C.ar  350  PHE350     -0.0200
    234  CD1       -8.0400   -4.2210    4.4980 C.ar  350  PHE350     -0.0042
    235  CD2       -5.8480   -3.3840    4.9680 C.ar  350  PHE350     -0.0042
    236  CE1       -7.7160   -4.3470    3.1480 C.ar  350  PHE350     -0.0003
    237  CE2       -5.5120   -3.5040    3.6250 C.ar  350  PHE350     -0.0003
    238  CZ        -6.4470   -3.9890    2.7070 C.ar  350  PHE350     -0.0000
@<TRIPOS>BOND
     1   174   173    1
     2   173   171   ar
     3   173   172   ar
     4   171   169   ar
     5   112   111    2
     6   172   170   ar
     7   120   118    1
     8   169   168   ar
     9   111   110    1
    10   114   115    1
    11   151   150    2
    12   115   118    1
    13   115   116    1
    14   170   168   ar
    15   109   110    1
    16   168   167    1
    17   155   154    2
    18   118   119    1
    19   156   157    1
    20   156   153    1
    21   110   113    1
    22   150   149    1
    23   150   152   am
    24   146   145    2
    25   157   158    1
    26   154   153    1
    27   154   163   am
    28   143   144    1
    29   164   167    1
    30   164   163    1
    31   164   165    1
    32   116   121   am
    33   116   117    2
    34   121   122    1
    35   149   148    1
    36   153   152    1
    37   100   101    2
    38   100    99    1
    39   145   148   am
    40   145   144    1
    41   165   166    2
    42   144   147    1
    43   124   123    2
    44    78    79    1
    45   158   159    1
    46   125   122    1
    47   125   126    1
    48    84    83    2
    49   159   160    2
    50   122   123    1
    51    99    98    1
    52    99   102    1
    53    79    80    1
    54    79    82    1
    55    80    81    2
    56   123   129   am
    57   132   131    2
    58    89    88    2
    59   131   130    1
    60   103   102    1
    61   103   104    1
    62   126   127   ar
    63   126   128   ar
    64    83    82    1
    65    83    85   am
    66   160   162    1
    67   160   161    1
    68    86    87    1
    69   129   130    1
    70   175   176    1
    71    88    87    1
    72   189   187   ar
    73   189   188   ar
    74   130   133    1
    75   105   104    1
    76   105   106    2
    77   178   177    2
    78   187   185   ar
    79   203   202    1
    80   108   106    1
    81    87    90    1
    82   133   134    1
    83   106   107    1
    84    70    71    2
    85    70    69    1
    86   188   186   ar
    87   176   177    1
    88   185   184   ar
    89   177   179   am
    90    76    74   ar
    91    76    77   ar
    92    74    73   ar
    93   202   204    1
    94   202   201    2
    95    90    91    1
    96   134   135   ar
    97   134   136   ar
    98   135   137   ar
    99    69    68    1
   100    69    72    1
   101   186   184   ar
   102   184   183    1
   103    92    91   ar
   104    92    94   ar
   105    91    93   ar
   106   179   180    1
   107   201   200    1
   108    77    75   ar
   109   180   183    1
   110   180   181    1
   111    73    72    1
   112    73    75   ar
   113    94    96   ar
   114    93    95   ar
   115   136   139   ar
   116   136   138   ar
   117   137   138   ar
   118    96    95   ar
   119    96    97    1
   120     5     6    1
   121     5     2    1
   122   190   181   am
   123   190   191    1
   124   139   141   ar
   125   210   211    1
   126   210   209    1
   127    53    51   am
   128   181   182    2
   129   200   199    1
   130   138   140   ar
   131     6     7    1
   132   211   205    1
   133    14    13    1
   134    14     8    1
   135    13    12    1
   136   191   192    1
   137     7     1    1
   138     2     1    1
   139     2     3    1
   140   209   206    1
   141   199   198    1
   142    51    50    1
   143    51    52    2
   144   198   195    1
   145   194   192   am
   146   194   195    1
   147   141   142   ar
   148    62    60   ar
   149    62    63   ar
   150   140   142   ar
   151    50    49    1
   152   192   193    2
   153    60    59   ar
   154   205   206    1
   155   205   196   am
   156     8     3   am
   157     8     9    1
   158     3     4    2
   159   195   196    1
   160    11    10    2
   161    12     9    1
   162   206   207    1
   163   196   197    2
   164    63    65   ar
   165    63    61   ar
   166     9    10    1
   167    49    46    1
   168    55    56    1
   169    55    54    1
   170    55    58    1
   171    65    67   ar
   172    10    15   am
   173    56    57    2
   174    59    61   ar
   175    59    58    1
   176    20    21    1
   177    20    19    1
   178    21    22    1
   179    46    47    1
   180    46    45    1
   181   207   208    2
   182    61    64   ar
   183    47    48    2
   184    67    66   ar
   185    15    16    1
   186    16    19    1
   187    16    17    1
   188    64    66   ar
   189    42    41    1
   190    42    43    1
   191   226   225    1
   192   238   236   ar
   193   238   237   ar
   194    28    27    1
   195   219   217    1
   196    23    17   am
   197    23    24    1
   198   212   213    1
   199   236   234   ar
   200    17    18    2
   201   217   216    1
   202    27    24    1
   203    27    29    1
   204   237   235   ar
   205    43    44    2
   206   227   225    1
   207   216   213    1
   208   216   218    1
   209   225   224    1
   210    24    25    1
   211   213   214    1
   212    26    25    2
   213   234   233   ar
   214   224   221    1
   215    25    30   am
   216   235   233   ar
   217   214   215    2
   218   233   232    1
   219    36    37    1
   220    36    35    1
   221    30    31    1
   222   221   222    1
   223   221   220    1
   224    37    38    2
   225   222   223    2
   226   222   228   am
   227    35    34    1
   228   232   229    1
   229    39    38    1
   230    38    40    1
   231    31    34    1
   232    31    32    1
   233   228   229    1
   234   229   230    1
   235    32    33    2
   236   230   231    2
