@<TRIPOS>MOLECULE
tmp/2gqnB00.pdb
 174 168 0 0 0
SMALL
GASTEIGER

@<TRIPOS>ATOM
      1  N         -1.5780   45.8260   32.5430 N.3    82  CYS82      -0.1221
      2  CA        -2.4920   45.7240   31.4070 C.3    82  CYS82       0.1808
      3  C         -2.1540   46.8370   30.4010 C.2    82  CYS82       0.2602
      4  O         -1.2390   47.6910   30.6200 O.2    82  CYS82      -0.2717
      5  CB        -3.9600   45.8000   31.8650 C.3    82  CYS82       0.0970
      6  SG        -4.4130   47.4020   32.5240 S.3    82  CYS82      -0.0800
      7  N         -2.8690   46.8210   29.2860 N.am   83  GLY83      -0.1942
      8  CA        -2.6430   47.8010   28.2140 C.3    83  GLY83       0.2014
      9  C         -2.9550   49.1810   28.7290 C.2    83  GLY83       0.2638
     10  O         -2.3080   50.1310   28.4070 O.2    83  GLY83      -0.2714
     11  N         -4.1100   49.3320   29.3830 N.am   84  ALA84      -0.1977
     12  CA        -4.4610   50.6300   29.8990 C.3    84  ALA84       0.1597
     13  C         -3.4790   51.2560   30.8600 C.2    84  ALA84       0.2287
     14  O         -3.2900   52.5010   30.8500 O.2    84  ALA84      -0.2864
     15  CB        -5.8310   50.5100   30.5730 C.3    84  ALA84       0.0319
     16  N         -0.5130   52.4980   28.7330 N.3    87  VAL87      -0.1245
     17  CA        -0.8460   53.8010   28.1500 C.3    87  VAL87       0.1561
     18  C         -0.8250   54.9540   29.1430 C.2    87  VAL87       0.2260
     19  O         -0.1790   55.9590   28.8730 O.2    87  VAL87      -0.2867
     20  CB        -2.2440   53.8430   27.4710 C.3    87  VAL87       0.0252
     21  CG1       -2.5170   55.2810   27.0300 C.3    87  VAL87       0.0019
     22  CG2       -2.2800   52.9320   26.2310 C.3    87  VAL87       0.0019
     23  N         -8.2260   54.5580   21.6110 N.3   108  TYR108     -0.1227
     24  CA        -9.0150   53.7780   22.5590 C.3   108  TYR108      0.1736
     25  C         -9.6540   54.6160   23.6780 C.2   108  TYR108      0.2595
     26  O         -8.9780   55.4520   24.2510 O.2   108  TYR108     -0.2718
     27  CB        -8.0790   52.6900   23.0760 C.3   108  TYR108      0.0548
     28  CG        -8.6680   51.7210   24.0470 C.ar  108  TYR108     -0.0200
     29  CD1       -9.8380   51.0180   23.7490 C.ar  108  TYR108     -0.0009
     30  CD2       -8.0440   51.4850   25.2690 C.ar  108  TYR108     -0.0009
     31  CE1      -10.3530   50.1120   24.6520 C.ar  108  TYR108      0.0417
     32  CE2       -8.5460   50.5930   26.1580 C.ar  108  TYR108      0.0417
     33  CZ        -9.7200   49.9250   25.8580 C.ar  108  TYR108      0.1957
     34  OH       -10.2520   49.0310   26.7820 O.3   108  TYR108     -0.2866
     35  N        -10.9690   54.4620   23.9310 N.am  109  GLU109     -0.1966
     36  CA       -11.6470   55.3780   24.8580 C.3   109  GLU109      0.1718
     37  C        -10.9380   55.6340   26.2400 C.2   109  GLU109      0.2458
     38  O        -10.7750   56.7980   26.6600 O.2   109  GLU109     -0.2730
     39  CB       -13.1770   55.0880   24.9560 C.3   109  GLU109      0.0428
     40  CG       -13.8640   56.0550   25.8390 C.3   109  GLU109      0.1163
     41  CD       -15.3800   55.7260   25.9200 C.2   109  GLU109      0.3649
     42  OE1      -15.7560   54.6850   25.3780 O.co2 109  GLU109     -0.2457
     43  OE2      -16.1240   56.5120   26.4990 O.co2 109  GLU109     -0.2457
     44  N        -10.4900   54.5640   26.9300 N.am  110  PRO110     -0.2727
     45  CA        -9.8210   54.7820   28.2120 C.3   110  PRO110      0.1402
     46  C         -8.5310   55.5850   28.0680 C.2   110  PRO110      0.2269
     47  O         -8.1370   56.2570   29.0260 O.2   110  PRO110     -0.2865
     48  CB        -9.4980   53.3690   28.7000 C.3   110  PRO110      0.0296
     49  CG       -10.5060   52.5130   28.0070 C.3   110  PRO110      0.0237
     50  CD       -10.6260   53.1250   26.6430 C.3   110  PRO110      0.0939
     51  N         -9.8650   59.0760   28.0340 N.3   113  ASP113     -0.1239
     52  CA       -10.4090   59.4000   29.3670 C.3   113  ASP113      0.1674
     53  C         -9.2970   59.6390   30.3770 C.2   113  ASP113      0.2266
     54  O         -9.4480   60.4420   31.2570 O.2   113  ASP113     -0.2867
     55  CB       -11.3130   58.2830   29.9360 C.3   113  ASP113      0.1410
     56  CG       -12.6360   58.1970   29.2490 C.2   113  ASP113      0.3668
     57  OD1      -12.9980   59.1270   28.4730 O.co2 113  ASP113     -0.2456
     58  OD2      -13.2870   57.1740   29.4820 O.co2 113  ASP113     -0.2456
     59  N         -2.5680   56.0680   17.2800 N.3   151  GLU151     -0.1245
     60  CA        -3.0840   54.6930   17.3140 C.3   151  GLU151      0.1567
     61  C         -3.4370   54.3140   15.8890 C.2   151  GLU151      0.2260
     62  O         -4.3320   54.9110   15.3250 O.2   151  GLU151     -0.2867
     63  CB        -4.3860   54.6200   18.1450 C.3   151  GLU151      0.0388
     64  CG        -4.9060   53.2020   18.2990 C.3   151  GLU151      0.1160
     65  CD        -5.8720   53.0560   19.4560 C.2   151  GLU151      0.3649
     66  OE1       -5.8020   53.8690   20.4080 O.co2 151  GLU151     -0.2457
     67  OE2       -6.6840   52.1000   19.4360 O.co2 151  GLU151     -0.2457
     68  N         -9.0690   52.7360   17.0290 N.3   155  SER155     -0.1217
     69  CA        -9.9900   51.8580   17.7610 C.3   155  SER155      0.1889
     70  C        -11.3330   51.9180   17.0850 C.2   155  SER155      0.2288
     71  O        -11.7780   53.0030   16.7290 O.2   155  SER155     -0.2866
     72  CB       -10.1700   52.3000   19.2300 C.3   155  SER155      0.2089
     73  OG        -9.0440   51.8990   19.9980 O.3   155  SER155     -0.2183
     74  N         -0.1220   53.4970   20.2190 N.3   182  ASP182     -0.1239
     75  CA        -0.6780   52.2360   20.6410 C.3   182  ASP182      0.1674
     76  C         -0.6550   51.2660   19.4300 C.2   182  ASP182      0.2266
     77  O         -1.4870   51.3350   18.5180 O.2   182  ASP182     -0.2867
     78  CB        -2.1390   52.4250   21.0970 C.3   182  ASP182      0.1410
     79  CG        -2.7300   51.1620   21.7510 C.2   182  ASP182      0.3668
     80  OD1       -2.4160   50.0360   21.3350 O.co2 182  ASP182     -0.2456
     81  OD2       -3.5810   51.3090   22.6800 O.co2 182  ASP182     -0.2456
     82  N         -1.1520   47.9390   19.2590 N.3   184  THR184     -0.1203
     83  CA        -1.7660   46.6400   19.6190 C.3   184  THR184      0.1994
     84  C         -2.3440   45.8360   18.4350 C.2   184  THR184      0.2617
     85  O         -2.1850   44.6070   18.3530 O.2   184  THR184     -0.2717
     86  CB        -2.8650   46.7970   20.7320 C.3   184  THR184      0.1784
     87  OG1       -2.3500   47.5620   21.8320 O.3   184  THR184     -0.2211
     88  CG2       -3.2670   45.4530   21.2770 C.3   184  THR184      0.0376
     89  N         -3.0170   46.5290   17.5160 N.am  185  TRP185     -0.1975
     90  CA        -3.5830   45.8690   16.3460 C.3   185  TRP185      0.1640
     91  C         -2.5520   45.0850   15.5230 C.2   185  TRP185      0.2290
     92  O         -2.8440   43.9710   15.0790 O.2   185  TRP185     -0.2864
     93  CB        -4.2760   46.8930   15.4560 C.3   185  TRP185      0.0576
     94  CG        -5.0690   46.3000   14.2910 C.ar  185  TRP185      0.0006
     95  CD1       -6.4010   45.9140   14.2950 C.ar  185  TRP185      0.0946
     96  CD2       -4.5810   46.0370   12.9620 C.ar  185  TRP185      0.0152
     97  NE1       -6.7550   45.4440   13.0540 N.ar  185  TRP185     -0.2442
     98  CE2       -5.6750   45.5250   12.2110 C.ar  185  TRP185      0.0810
     99  CE3       -3.3500   46.2150   12.3210 C.ar  185  TRP185      0.0012
    100  CZ2       -5.5540   45.1640   10.8630 C.ar  185  TRP185      0.0191
    101  CZ3       -3.2310   45.8410   10.9810 C.ar  185  TRP185      0.0001
    102  CH2       -4.3420   45.3470   10.2690 C.ar  185  TRP185      0.0015
    103  N         -1.3380   46.6180   24.4300 N.3   204  ALA204     -0.1245
    104  CA        -1.9790   45.6910   25.2970 C.3   204  ALA204      0.1562
    105  C         -1.5610   44.2990   24.8760 C.2   204  ALA204      0.2260
    106  O         -2.0840   43.7580   23.9160 O.2   204  ALA204     -0.2867
    107  CB        -3.5360   45.8350   25.2050 C.3   204  ALA204      0.0290
    108  N         -2.1260   41.6920   26.3120 N.3   206  THR206     -0.1203
    109  CA        -3.4370   41.0180   26.5060 C.3   206  THR206      0.1994
    110  C         -4.0910   40.4860   25.2180 C.2   206  THR206      0.2617
    111  O         -4.8520   39.4880   25.2310 O.2   206  THR206     -0.2717
    112  CB        -4.4120   42.0730   27.1180 C.3   206  THR206      0.1784
    113  OG1       -3.8150   42.6850   28.2570 O.3   206  THR206     -0.2211
    114  CG2       -5.7680   41.5280   27.5180 C.3   206  THR206      0.0376
    115  N         -3.9070   41.2280   24.1410 N.am  207  LYS207     -0.1979
    116  CA        -4.5210   40.9450   22.8450 C.3   207  LYS207      0.1596
    117  C         -3.7420   39.8580   22.1380 C.2   207  LYS207      0.2287
    118  O         -3.7430   38.7260   22.6210 O.2   207  LYS207     -0.2864
    119  CB        -4.6050   42.2170   21.9950 C.3   207  LYS207      0.0298
    120  CG        -5.8340   43.0870   22.2500 C.3   207  LYS207      0.0038
    121  CD        -6.0050   43.4550   23.6980 C.3   207  LYS207      0.0206
    122  CE        -7.3010   44.2920   23.8070 C.3   207  LYS207      0.1093
    123  NZ        -7.9010   44.2130   25.1920 N.3   207  LYS207     -0.1314
    124  N         -3.5720   39.4180   31.2970 N.3   216  MET216     -0.1245
    125  CA        -3.5260   40.8590   31.0130 C.3   216  MET216      0.1570
    126  C         -2.1220   41.3770   31.3240 C.2   216  MET216      0.2261
    127  O         -1.5770   40.9710   32.3240 O.2   216  MET216     -0.2867
    128  CB        -4.5930   41.5990   31.8410 C.3   216  MET216      0.0387
    129  CG        -5.9280   41.0290   31.5330 C.3   216  MET216      0.0595
    130  SD        -7.4140   41.9630   31.9760 S.3   216  MET216     -0.1393
    131  CE        -7.1200   43.5210   31.0960 C.3   216  MET216      0.0692
    132  N        -15.7200   42.3900   25.2020 N.3   335  TYR335     -0.1227
    133  CA       -14.6400   43.3260   24.9990 C.3   335  TYR335      0.1736
    134  C        -13.2870   42.6060   24.8830 C.2   335  TYR335      0.2596
    135  O        -13.2040   41.3790   25.0180 O.2   335  TYR335     -0.2718
    136  CB       -14.6680   44.3480   26.1320 C.3   335  TYR335      0.0548
    137  CG       -15.9390   45.2230   26.0970 C.ar  335  TYR335     -0.0200
    138  CD1      -16.1190   46.1830   25.1010 C.ar  335  TYR335     -0.0009
    139  CD2      -16.9390   45.0820   27.0650 C.ar  335  TYR335     -0.0009
    140  CE1      -17.2400   46.9740   25.0740 C.ar  335  TYR335      0.0417
    141  CE2      -18.0820   45.8700   27.0450 C.ar  335  TYR335      0.0417
    142  CZ       -18.2310   46.8120   26.0450 C.ar  335  TYR335      0.1957
    143  OH       -19.3470   47.6260   26.0130 O.3   335  TYR335     -0.2866
    144  N        -12.2320   43.3620   24.6010 N.am  336  SER336     -0.1938
    145  CA       -10.9790   42.7590   24.1720 C.3   336  SER336      0.2055
    146  C        -11.2370   41.9710   22.8500 C.2   336  SER336      0.2643
    147  O        -12.3490   41.9420   22.3020 O.2   336  SER336     -0.2714
    148  CB       -10.3260   41.8890   25.2630 C.3   336  SER336      0.2130
    149  OG        -8.8930   41.8340   25.0570 O.3   336  SER336     -0.2179
    150  N        -10.1730   41.3660   22.3600 N.am  337  TRP337     -0.1973
    151  CA       -10.0750   40.8250   21.0220 C.3   337  TRP337      0.1640
    152  C         -8.6300   40.3300   20.9810 C.2   337  TRP337      0.2290
    153  O         -7.9490   40.4700   21.9680 O.2   337  TRP337     -0.2864
    154  CB       -10.3690   41.9200   19.9750 C.3   337  TRP337      0.0576
    155  CG        -9.7140   43.2680   20.2080 C.ar  337  TRP337      0.0006
    156  CD1      -10.2220   44.3360   20.9120 C.ar  337  TRP337      0.0946
    157  CD2       -8.4550   43.7160   19.6740 C.ar  337  TRP337      0.0152
    158  NE1       -9.3340   45.4040   20.8890 N.ar  337  TRP337     -0.2442
    159  CE2       -8.2550   45.0570   20.1130 C.ar  337  TRP337      0.0810
    160  CE3       -7.4650   43.1110   18.8760 C.ar  337  TRP337      0.0012
    161  CZ2       -7.0940   45.8000   19.7690 C.ar  337  TRP337      0.0191
    162  CZ3       -6.3550   43.8330   18.5420 C.ar  337  TRP337      0.0001
    163  CH2       -6.1760   45.1880   18.9900 C.ar  337  TRP337      0.0015
    164  N        -18.1940   45.8800   15.0110 N.3   369  ARG369     -0.1245
    165  CA       -16.7910   45.4850   15.1100 C.3   369  ARG369      0.1563
    166  C        -16.6850   43.9610   15.2570 C.2   369  ARG369      0.2260
    167  O        -17.2500   43.3700   16.1700 O.2   369  ARG369     -0.2867
    168  CB       -16.0630   46.2020   16.2520 C.3   369  ARG369      0.0307
    169  CG       -14.5170   46.1000   16.1270 C.3   369  ARG369      0.0489
    170  CD       -13.9290   46.6660   17.3840 C.3   369  ARG369      0.2205
    171  NE       -14.0750   45.7790   18.5380 N.pl3 369  ARG369     -0.0865
    172  CZ       -13.4540   45.9610   19.7030 C.cat 369  ARG369      0.5346
    173  NH1      -12.5980   46.9960   19.8470 N.pl3 369  ARG369      0.1354
    174  NH2      -13.6680   45.0990   20.7130 N.pl3 369  ARG369      0.1354
@<TRIPOS>BOND
     1   102   100   ar
     2   102   101   ar
     3   100    98   ar
     4   101    99   ar
     5    98    96   ar
     6    98    97   ar
     7    99    96   ar
     8    96    94   ar
     9    97    95   ar
    10    94    95   ar
    11    94    93    1
    12   164   165    1
    13    92    91    2
    14   165   166    1
    15   165   168    1
    16   166   167    2
    17    62    61    2
    18    93    90    1
    19    91    90    1
    20    61    60    1
    21   169   168    1
    22   169   170    1
    23    90    89    1
    24    71    70    2
    25    68    69    1
    26    70    69    1
    27    59    60    1
    28    60    63    1
    29   170   171    1
    30    89    84   am
    31    69    72    1
    32    63    64    1
    33    64    65    1
    34    85    84    2
    35    84    83    1
    36    77    76    2
    37   171   172    2
    38   162   160   ar
    39   162   163   ar
    40   160   157   ar
    41   163   161   ar
    42    72    73    1
    43    82    83    1
    44    76    75    1
    45    67    65   ar
    46    65    66   ar
    47    83    86    1
    48   157   159   ar
    49   157   155   ar
    50   172   173    1
    51   172   174    1
    52   161   159   ar
    53   154   155    1
    54   154   151    1
    55   159   158   ar
    56   155   156   ar
    57    74    75    1
    58    75    78    1
    59    86    88    1
    60    86    87    1
    61   158   156   ar
    62   152   151    1
    63   152   153    2
    64   151   150    1
    65    78    79    1
    66    80    79   ar
    67    23    24    1
    68    79    81   ar
    69   119   120    1
    70   119   116    1
    71   117   118    2
    72   117   116    1
    73   120   121    1
    74   147   146    2
    75   150   146   am
    76    24    27    1
    77    24    25    1
    78   116   115    1
    79   146   145    1
    80    27    28    1
    81    25    35   am
    82    25    26    2
    83   121   122    1
    84    29    28   ar
    85    29    31   ar
    86   122   123    1
    87   106   105    2
    88    35    36    1
    89    28    30   ar
    90   115   110   am
    91   145   144    1
    92   145   148    1
    93   103   104    1
    94   144   134   am
    95    31    33   ar
    96    36    39    1
    97    36    37    1
    98   105   104    1
    99   134   133    1
   100   134   135    2
   101    39    40    1
   102   133   132    1
   103   133   136    1
   104   149   148    1
   105   140   138   ar
   106   140   142   ar
   107   138   137   ar
   108   107   104    1
   109   110   111    2
   110   110   109    1
   111    30    32   ar
   112    42    41   ar
   113    40    41    1
   114    33    32   ar
   115    33    34    1
   116    41    43   ar
   117   143   142    1
   118   142   141   ar
   119   137   136    1
   120   137   139   ar
   121    22    20    1
   122    37    38    2
   123    37    44   am
   124   108   109    1
   125   109   112    1
   126    50    44    1
   127    50    49    1
   128    44    45    1
   129    21    20    1
   130   141   139   ar
   131   112   114    1
   132   112   113    1
   133    20    17    1
   134    49    48    1
   135    51    52    1
   136    46    45    1
   137    46    47    2
   138    17    16    1
   139    17    18    1
   140    45    48    1
   141     8     9    1
   142     8     7    1
   143    10     9    2
   144    57    56   ar
   145     9    11   am
   146    19    18    2
   147    56    58   ar
   148    56    55    1
   149     7     3   am
   150    52    55    1
   151    52    53    1
   152    11    12    1
   153    12    15    1
   154    12    13    1
   155    53    54    2
   156     3     4    2
   157     3     2    1
   158    14    13    2
   159   125   124    1
   160   125   126    1
   161   125   128    1
   162   131   130    1
   163   126   127    2
   164     2     5    1
   165     2     1    1
   166   129   128    1
   167   129   130    1
   168     5     6    1
