@<TRIPOS>MOLECULE
tmp/2gqsA00.pdb
 155 143 0 0 0
SMALL
GASTEIGER

@<TRIPOS>ATOM
      1  N         -9.2380   27.4490   80.3200 N.3     8  TYR8       -0.1241
      2  CA        -7.7930   27.4900   80.1860 C.3     8  TYR8        0.1605
      3  C         -7.3430   28.9150   79.9760 C.2     8  TYR8        0.2264
      4  O         -8.1430   29.7790   79.6430 O.2     8  TYR8       -0.2867
      5  CB        -7.3300   26.6070   79.0240 C.3     8  TYR8        0.0534
      6  CG        -7.9680   26.9100   77.6890 C.ar    8  TYR8       -0.0201
      7  CD1       -7.4970   27.9470   76.8820 C.ar    8  TYR8       -0.0009
      8  CD2       -9.0240   26.1280   77.2100 C.ar    8  TYR8       -0.0009
      9  CE1       -8.0600   28.1930   75.6190 C.ar    8  TYR8        0.0417
     10  CE2       -9.5950   26.3640   75.9560 C.ar    8  TYR8        0.0417
     11  CZ        -9.1080   27.3940   75.1640 C.ar    8  TYR8        0.1957
     12  OH        -9.6570   27.6050   73.9150 O.3     8  TYR8       -0.2866
     13  N         -4.1630   31.6270   78.4090 N.3    10  GLY10      -0.1210
     14  CA        -2.9960   31.7840   77.5780 C.3    10  GLY10       0.1956
     15  C         -2.0930   32.8100   78.2070 C.2    10  GLY10       0.2612
     16  O         -2.2250   33.1250   79.3940 O.2    10  GLY10      -0.2717
     17  N         -1.1870   33.3470   77.4010 N.am   11  LYS11      -0.1965
     18  CA        -0.2340   34.3390   77.8710 C.3    11  LYS11       0.1728
     19  C         -0.8770   35.6790   78.2160 C.2    11  LYS11       0.2616
     20  O         -0.3740   36.3990   79.0760 O.2    11  LYS11      -0.2715
     21  CB         0.8530   34.5430   76.8160 C.3    11  LYS11       0.0311
     22  CG         1.5850   33.2640   76.4480 C.3    11  LYS11       0.0038
     23  CD         2.6410   33.5150   75.3770 C.3    11  LYS11       0.0206
     24  CE         2.0160   33.9370   74.0520 C.3    11  LYS11       0.1093
     25  NZ         1.2230   32.8370   73.4330 N.3    11  LYS11      -0.1314
     26  N         -1.9920   36.0080   77.5680 N.am   12  ALA12      -0.1963
     27  CA        -2.6500   37.2890   77.8290 C.3    12  ALA12       0.1728
     28  C         -4.1410   37.2490   78.1810 C.2    12  ALA12       0.2616
     29  O         -4.6650   38.2180   78.7300 O.2    12  ALA12      -0.2715
     30  CB        -2.4360   38.2260   76.6330 C.3    12  ALA12       0.0334
     31  N         -4.8250   36.1500   77.8710 N.am   13  LYS13      -0.1977
     32  CA        -6.2550   36.0640   78.1540 C.3    13  LYS13       0.1596
     33  C         -6.6920   34.8070   78.8970 C.2    13  LYS13       0.2287
     34  O         -6.0320   33.7670   78.8470 O.2    13  LYS13      -0.2864
     35  CB        -7.0520   36.1560   76.8480 C.3    13  LYS13       0.0298
     36  CG        -6.6710   37.3480   75.9690 C.3    13  LYS13       0.0038
     37  CD        -7.6470   37.5290   74.8030 C.3    13  LYS13       0.0206
     38  CE        -7.5250   36.4300   73.7640 C.3    13  LYS13       0.1093
     39  NZ        -6.1950   36.4460   73.0790 N.3    13  LYS13      -0.1314
     40  N         -9.8410   32.0990   79.3290 N.3    15  VAL15      -0.1245
     41  CA       -11.0560   31.6320   78.6660 C.3    15  VAL15       0.1561
     42  C        -11.9910   30.9180   79.6280 C.2    15  VAL15       0.2260
     43  O        -11.5960   29.9640   80.2980 O.2    15  VAL15      -0.2867
     44  CB       -10.7270   30.6660   77.4980 C.3    15  VAL15       0.0252
     45  CG1      -11.9920   30.3520   76.7140 C.3    15  VAL15       0.0019
     46  CG2       -9.6810   31.2860   76.5830 C.3    15  VAL15       0.0019
     47  N        -18.5870   31.4850   75.2400 N.3    24  LEU24      -0.1245
     48  CA       -17.4510   31.5440   76.1480 C.3    24  LEU24       0.1561
     49  C        -17.2460   32.9950   76.5330 C.2    24  LEU24       0.2260
     50  O        -17.7250   33.8930   75.8470 O.2    24  LEU24      -0.2867
     51  CB       -16.1750   31.0610   75.4560 C.3    24  LEU24       0.0270
     52  CG       -16.0760   29.6460   74.8860 C.3    24  LEU24       0.0019
     53  CD1      -14.6930   29.4930   74.2800 C.3    24  LEU24       0.0001
     54  CD2      -16.2910   28.6010   75.9810 C.3    24  LEU24       0.0001
     55  N        -14.2290   35.7400   77.3170 N.3    26  LEU26      -0.1245
     56  CA       -12.7890   35.9540   77.2020 C.3    26  LEU26       0.1561
     57  C        -12.4150   37.1100   78.1110 C.2    26  LEU26       0.2260
     58  O        -13.0490   38.1640   78.0680 O.2    26  LEU26      -0.2867
     59  CB       -12.3820   36.3260   75.7740 C.3    26  LEU26       0.0270
     60  CG       -12.4570   35.2880   74.6600 C.3    26  LEU26       0.0019
     61  CD1      -11.9500   35.9190   73.3620 C.3    26  LEU26       0.0001
     62  CD2      -11.6190   34.0650   75.0360 C.3    26  LEU26       0.0001
     63  N        -16.4000   36.0750   66.0740 N.3    69  GLN69      -0.1245
     64  CA       -16.8480   35.3970   67.2950 C.3    69  GLN69       0.1566
     65  C        -17.6780   36.3000   68.2180 C.2    69  GLN69       0.2260
     66  O        -18.4070   35.8280   69.0930 O.2    69  GLN69      -0.2867
     67  CB       -15.6170   34.9820   68.1010 C.3    69  GLN69       0.0367
     68  CG       -15.0400   36.1960   68.8840 C.3    69  GLN69       0.0905
     69  CD       -13.6230   36.0030   69.3820 C.2    69  GLN69       0.2608
     70  OE1      -13.1960   34.8850   69.6550 O.2    69  GLN69      -0.2717
     71  NE2      -12.8870   37.1100   69.5260 N.am   69  GLN69      -0.0878
     72  N        -18.2020   35.6080   73.6690 N.3    81  VAL81      -0.1231
     73  CA       -17.9140   35.2030   72.3050 C.3    81  VAL81       0.1692
     74  C        -18.3770   33.7840   72.0230 C.2    81  VAL81       0.2592
     75  O        -18.5650   32.9820   72.9380 O.2    81  VAL81      -0.2718
     76  CB       -16.3980   35.2650   72.0140 C.3    81  VAL81       0.0266
     77  CG1      -15.8650   36.6610   72.3010 C.3    81  VAL81       0.0020
     78  CG2      -15.6660   34.2380   72.8570 C.3    81  VAL81       0.0020
     79  N        -18.5550   33.4800   70.7450 N.am   82  LYS82      -0.1966
     80  CA       -18.9480   32.1420   70.3500 C.3    82  LYS82       0.1728
     81  C        -17.7740   31.2090   70.6620 C.2    82  LYS82       0.2616
     82  O        -16.6040   31.5970   70.5310 O.2    82  LYS82      -0.2715
     83  CB       -19.2480   32.0920   68.8500 C.3    82  LYS82       0.0311
     84  CG       -20.4570   32.9220   68.4190 C.3    82  LYS82       0.0038
     85  CD       -20.6850   32.8240   66.9220 C.3    82  LYS82       0.0206
     86  CE       -21.9450   33.5740   66.5090 C.3    82  LYS82       0.1093
     87  NZ       -22.1810   33.4820   65.0380 N.3    82  LYS82      -0.1314
     88  N        -18.0930   29.9930   71.0980 N.am   83  LYS83      -0.1963
     89  CA       -17.0790   28.9920   71.3900 C.3    83  LYS83       0.1728
     90  C        -16.6300   28.4980   70.0180 C.2    83  LYS83       0.2616
     91  O        -17.4450   28.0550   69.2130 O.2    83  LYS83      -0.2715
     92  CB       -17.6870   27.8360   72.1880 C.3    83  LYS83       0.0311
     93  CG       -16.7030   26.7280   72.5960 C.3    83  LYS83       0.0038
     94  CD       -17.4610   25.5000   73.1150 C.3    83  LYS83       0.0206
     95  CE       -16.5280   24.3870   73.6290 C.3    83  LYS83       0.1093
     96  NZ       -15.9950   24.6240   75.0190 N.3    83  LYS83      -0.1314
     97  N        -15.3400   28.5940   69.7390 N.am   84  LEU84      -0.1977
     98  CA       -14.8360   28.1620   68.4470 C.3    84  LEU84       0.1596
     99  C        -13.8590   27.0100   68.5820 C.2    84  LEU84       0.2287
    100  O        -13.1280   26.9190   69.5660 O.2    84  LEU84      -0.2864
    101  CB       -14.1410   29.3260   67.7330 C.3    84  LEU84       0.0297
    102  CG       -14.9480   30.5980   67.4400 C.3    84  LEU84       0.0022
    103  CD1      -14.0650   31.5690   66.6520 C.3    84  LEU84       0.0001
    104  CD2      -16.2070   30.2690   66.6400 C.3    84  LEU84       0.0001
    105  N        -10.8760   26.2160   67.5760 N.3    86  MET86      -0.1245
    106  CA        -9.7300   26.9250   67.0200 C.3    86  MET86       0.1570
    107  C         -8.7220   26.1260   66.2070 C.2    86  MET86       0.2261
    108  O         -8.3480   25.0110   66.5670 O.2    86  MET86      -0.2867
    109  CB        -8.9720   27.6510   68.1380 C.3    86  MET86       0.0387
    110  CG        -9.8130   28.6120   68.9690 C.3    86  MET86       0.0595
    111  SD       -10.4690   29.9970   68.0270 S.3    86  MET86      -0.1393
    112  CE        -8.9290   30.8710   67.5470 C.3    86  MET86       0.0692
    113  N          0.9020   27.3330   66.4630 N.3   123  LYS123     -0.1245
    114  CA         0.8330   27.8580   67.8250 C.3   123  LYS123      0.1561
    115  C          1.5040   26.8610   68.7530 C.2   123  LYS123      0.2260
    116  O          0.9290   25.8300   69.0910 O.2   123  LYS123     -0.2867
    117  CB        -0.6200   28.0640   68.2840 C.3   123  LYS123      0.0271
    118  CG        -1.2860   29.3180   67.7580 C.3   123  LYS123      0.0035
    119  CD        -2.7380   29.4450   68.2580 C.3   123  LYS123      0.0206
    120  CE        -2.8250   29.7080   69.7630 C.3   123  LYS123      0.1093
    121  NZ        -2.2070   31.0150   70.1360 N.3   123  LYS123     -0.1314
    122  N          4.1910   27.6960   71.9250 N.3   125  ASP125     -0.1239
    123  CA         5.0960   28.5660   72.6600 C.3   125  ASP125      0.1674
    124  C          6.4380   27.9030   72.9060 C.2   125  ASP125      0.2266
    125  O          7.4800   28.5240   72.7070 O.2   125  ASP125     -0.2867
    126  CB         4.4760   28.9870   73.9950 C.3   125  ASP125      0.1410
    127  CG         3.2670   29.8860   73.8170 C.2   125  ASP125      0.3668
    128  OD1        3.2850   30.7370   72.9020 O.co2 125  ASP125     -0.2456
    129  OD2        2.3050   29.7520   74.5970 O.co2 125  ASP125     -0.2456
    130  N         -1.4350   39.6210   63.1010 N.3   177  LYS177     -0.1245
    131  CA        -1.7190   38.2040   63.2440 C.3   177  LYS177      0.1561
    132  C         -3.1820   37.9670   63.5880 C.2   177  LYS177      0.2260
    133  O         -3.7600   38.6790   64.4020 O.2   177  LYS177     -0.2867
    134  CB        -0.8230   37.6020   64.3330 C.3   177  LYS177      0.0271
    135  CG        -0.9530   36.0870   64.5060 C.3   177  LYS177      0.0035
    136  CD        -2.0280   35.7020   65.5170 C.3   177  LYS177      0.0206
    137  CE        -1.6130   36.0590   66.9350 C.3   177  LYS177      0.1093
    138  NZ        -2.7100   35.8200   67.9240 N.3   177  LYS177     -0.1314
    139  N         -6.2490   34.6660   64.1990 N.3   179  GLU179     -0.1245
    140  CA        -6.4660   33.2630   64.5460 C.3   179  GLU179      0.1567
    141  C         -7.9310   32.9990   64.2570 C.2   179  GLU179      0.2260
    142  O         -8.7820   33.8190   64.5950 O.2   179  GLU179     -0.2867
    143  CB        -6.1850   32.9840   66.0280 C.3   179  GLU179      0.0388
    144  CG        -4.7140   33.0820   66.4270 C.3   179  GLU179      0.1160
    145  CD        -4.4710   32.6690   67.8700 C.2   179  GLU179      0.3649
    146  OE1       -3.4370   33.0750   68.4380 O.co2 179  GLU179     -0.2457
    147  OE2       -5.3040   31.9310   68.4400 O.co2 179  GLU179     -0.2457
    148  N        -10.2060   34.8660   68.7100 N.3   191  ASP191     -0.1239
    149  CA        -9.1210   35.5020   69.4580 C.3   191  ASP191      0.1674
    150  C         -9.2320   37.0260   69.5530 C.2   191  ASP191      0.2266
    151  O        -10.1890   37.5550   70.1230 O.2   191  ASP191     -0.2867
    152  CB        -7.7730   35.1060   68.8370 C.3   191  ASP191      0.1410
    153  CG        -6.5990   35.3880   69.7560 C.2   191  ASP191      0.3668
    154  OD1       -6.6470   34.9520   70.9240 O.co2 191  ASP191     -0.2456
    155  OD2       -5.6250   36.0350   69.3140 O.co2 191  ASP191     -0.2456
@<TRIPOS>BOND
     1   130   131    1
     2   131   132    1
     3   131   134    1
     4   132   133    2
     5   139   140    1
     6   141   140    1
     7   141   142    2
     8   134   135    1
     9   135   136    1
    10   140   143    1
    11    87    86    1
    12   136   137    1
    13   143   144    1
    14    63    64    1
    15   107   108    2
    16   107   106    1
    17   144   145    1
    18   113   114    1
    19    86    85    1
    20   104   102    1
    21   103   102    1
    22    85    84    1
    23   137   138    1
    24   106   105    1
    25   106   109    1
    26    64    67    1
    27    64    65    1
    28   102   101    1
    29   112   111    1
    30   101    98    1
    31   118   119    1
    32   118   117    1
    33   114   117    1
    34   114   115    1
    35   145   146   ar
    36   145   147   ar
    37   111   110    1
    38    67    68    1
    39   109   110    1
    40    65    66    2
    41   119   120    1
    42    84    83    1
    43    98    99    1
    44    98    97    1
    45    99   100    2
    46   148   149    1
    47   115   116    2
    48   152   149    1
    49   152   153    1
    50    83    80    1
    51    68    69    1
    52    91    90    2
    53   155   153   ar
    54    69    71   am
    55    69    70    2
    56   149   150    1
    57   150   151    2
    58    97    90   am
    59   153   154   ar
    60   120   121    1
    61    90    89    1
    62    80    81    1
    63    80    79    1
    64    82    81    2
    65    81    88   am
    66    79    74   am
    67    88    89    1
    68    89    92    1
    69   122   123    1
    70    76    77    1
    71    76    73    1
    72    76    78    1
    73    74    73    1
    74    74    75    2
    75    92    93    1
    76    73    72    1
    77    93    94    1
    78   123   124    1
    79   123   126    1
    80   125   124    2
    81   128   127   ar
    82    39    38    1
    83    94    95    1
    84    61    60    1
    85    25    24    1
    86    95    96    1
    87    38    37    1
    88   127   126    1
    89   127   129   ar
    90    12    11    1
    91    24    23    1
    92    53    52    1
    93    60    62    1
    94    60    59    1
    95    37    36    1
    96    52    51    1
    97    52    54    1
    98    11     9   ar
    99    11    10   ar
   100    47    48    1
   101    23    22    1
   102    51    48    1
   103     9     7   ar
   104    59    56    1
   105    50    49    2
   106    10     8   ar
   107    36    35    1
   108    48    49    1
   109    22    21    1
   110    46    44    1
   111    30    27    1
   112    45    44    1
   113    21    18    1
   114    35    32    1
   115     7     6   ar
   116    56    55    1
   117    56    57    1
   118     8     6   ar
   119    17    18    1
   120    17    15   am
   121    44    41    1
   122    26    27    1
   123    26    19   am
   124    14    15    1
   125    14    13    1
   126     6     5    1
   127    27    28    1
   128    31    32    1
   129    31    28   am
   130    18    19    1
   131    58    57    2
   132    32    33    1
   133    28    29    2
   134    15    16    2
   135    19    20    2
   136    41    40    1
   137    41    42    1
   138    34    33    2
   139     5     2    1
   140    42    43    2
   141     4     3    2
   142     3     2    1
   143     2     1    1
