@<TRIPOS>MOLECULE
tmp/2gqsA01.pdb
 150 140 0 0 0
SMALL
GASTEIGER

@<TRIPOS>ATOM
      1  N         -1.1870   33.3470   77.4010 N.3    11  LYS11      -0.1245
      2  CA        -0.2340   34.3390   77.8710 C.3    11  LYS11       0.1561
      3  C         -0.8770   35.6790   78.2160 C.2    11  LYS11       0.2260
      4  O         -0.3740   36.3990   79.0760 O.2    11  LYS11      -0.2867
      5  CB         0.8530   34.5430   76.8160 C.3    11  LYS11       0.0271
      6  CG         1.5850   33.2640   76.4480 C.3    11  LYS11       0.0035
      7  CD         2.6410   33.5150   75.3770 C.3    11  LYS11       0.0206
      8  CE         2.0160   33.9370   74.0520 C.3    11  LYS11       0.1093
      9  NZ         1.2230   32.8370   73.4330 N.3    11  LYS11      -0.1314
     10  N          7.3810   34.9710   72.8290 N.3    36  ASP36      -0.1239
     11  CA         6.3890   33.9030   72.8610 C.3    36  ASP36       0.1674
     12  C          6.1640   33.3380   74.2600 C.2    36  ASP36       0.2266
     13  O          6.0170   32.1220   74.4320 O.2    36  ASP36      -0.2867
     14  CB         6.7890   32.7750   71.8990 C.3    36  ASP36       0.1410
     15  CG         6.8360   33.2330   70.4450 C.2    36  ASP36       0.3668
     16  OD1        5.7800   33.6230   69.8960 O.co2  36  ASP36      -0.2456
     17  OD2        7.9360   33.2070   69.8530 O.co2  36  ASP36      -0.2456
     18  N         -1.4340   30.4270   63.3320 N.3    90  GLU90      -0.1245
     19  CA        -1.5340   31.8850   63.3160 C.3    90  GLU90       0.1567
     20  C         -1.3860   32.3920   61.8800 C.2    90  GLU90       0.2260
     21  O         -0.4660   31.9900   61.1730 O.2    90  GLU90      -0.2867
     22  CB        -0.4430   32.5070   64.2040 C.3    90  GLU90       0.0388
     23  CG        -0.4290   31.9750   65.6330 C.3    90  GLU90       0.1160
     24  CD         0.6260   32.6300   66.5160 C.2    90  GLU90       0.3649
     25  OE1        1.5640   33.2580   65.9720 O.co2  90  GLU90      -0.2457
     26  OE2        0.5220   32.5030   67.7600 O.co2  90  GLU90      -0.2457
     27  N         -0.5420   35.4410   59.4990 N.3    92  VAL92      -0.1245
     28  CA         0.1400   36.7320   59.4950 C.3    92  VAL92       0.1561
     29  C          0.3140   37.3420   58.1090 C.2    92  VAL92       0.2260
     30  O          0.7650   36.6760   57.1780 O.2    92  VAL92      -0.2867
     31  CB         1.5330   36.5990   60.1450 C.3    92  VAL92       0.0252
     32  CG1        2.3520   37.8790   59.9490 C.3    92  VAL92       0.0019
     33  CG2        1.3700   36.3010   61.6250 C.3    92  VAL92       0.0019
     34  N          2.0190   40.6560   56.0800 N.3    94  ARG94      -0.1245
     35  CA         3.0310   41.6880   56.2250 C.3    94  ARG94       0.1563
     36  C          2.9480   42.6640   55.0550 C.2    94  ARG94       0.2260
     37  O          3.0310   42.2640   53.8940 O.2    94  ARG94      -0.2867
     38  CB         4.4280   41.0560   56.2770 C.3    94  ARG94       0.0307
     39  CG         4.5960   39.9990   57.3550 C.3    94  ARG94       0.0489
     40  CD         5.9510   39.2930   57.2530 C.3    94  ARG94       0.2205
     41  NE         6.0430   38.2260   58.2420 N.pl3  94  ARG94      -0.0865
     42  CZ         6.4130   38.3990   59.5080 C.cat  94  ARG94       0.5346
     43  NH1        6.7560   39.6030   59.9470 N.pl3  94  ARG94       0.1354
     44  NH2        6.3710   37.3770   60.3500 N.pl3  94  ARG94       0.1354
     45  N         10.0270   42.6880   62.4170 N.3    99  GLY99      -0.1210
     46  CA        10.1280   41.5200   63.2730 C.3    99  GLY99       0.1956
     47  C         10.8750   40.3280   62.7040 C.2    99  GLY99       0.2612
     48  O         11.9690   40.4700   62.1500 O.2    99  GLY99      -0.2717
     49  N         10.2640   39.1490   62.8240 N.am  100  SER100     -0.1952
     50  CA        10.8710   37.9110   62.3610 C.3   100  SER100      0.1924
     51  C         11.2640   37.8900   60.8850 C.2   100  SER100      0.2314
     52  O         12.1780   37.1580   60.5040 O.2   100  SER100     -0.2863
     53  CB         9.9470   36.7310   62.6520 C.3   100  SER100      0.2116
     54  OG         8.8410   36.7250   61.7700 O.3   100  SER100     -0.2180
     55  N          1.9680   30.1780   60.9380 N.3   121  PHE121     -0.1241
     56  CA         2.7900   29.7400   62.0630 C.3   121  PHE121      0.1605
     57  C          2.0040   28.7810   62.9340 C.2   121  PHE121      0.2264
     58  O          0.8030   28.9390   63.1170 O.2   121  PHE121     -0.2867
     59  CB         3.2210   30.9200   62.9360 C.3   121  PHE121      0.0534
     60  CG         4.1180   31.9050   62.2480 C.ar  121  PHE121     -0.0203
     61  CD1        3.5940   33.0580   61.6730 C.ar  121  PHE121     -0.0042
     62  CD2        5.4970   31.7000   62.2110 C.ar  121  PHE121     -0.0042
     63  CE1        4.4360   34.0050   61.0740 C.ar  121  PHE121     -0.0003
     64  CE2        6.3510   32.6400   61.6110 C.ar  121  PHE121     -0.0003
     65  CZ         5.8150   33.7920   61.0450 C.ar  121  PHE121     -0.0000
     66  N          6.4360   29.3050   68.1680 N.3   129  ASP129     -0.1239
     67  CA         5.5870   29.4330   66.9910 C.3   129  ASP129      0.1674
     68  C          6.3490   29.2050   65.6870 C.2   129  ASP129      0.2266
     69  O          6.5030   30.1230   64.8830 O.2   129  ASP129     -0.2867
     70  CB         4.9420   30.8220   66.9540 C.3   129  ASP129      0.1410
     71  CG         3.9520   31.0430   68.0800 C.2   129  ASP129      0.3668
     72  OD1        3.5970   30.0700   68.7840 O.co2 129  ASP129     -0.2456
     73  OD2        3.5140   32.2010   68.2540 O.co2 129  ASP129     -0.2456
     74  N          2.0520   44.9880   59.8800 N.3   175  ASP175     -0.1225
     75  CA         1.7660   43.5640   59.7900 C.3   175  ASP175      0.1805
     76  C          0.8330   43.2150   60.9390 C.2   175  ASP175      0.2598
     77  O          0.6000   44.0380   61.8250 O.2   175  ASP175     -0.2718
     78  CB         3.0520   42.7080   59.8470 C.3   175  ASP175      0.1424
     79  CG         3.8400   42.8740   61.1430 C.2   175  ASP175      0.3668
     80  OD1        3.2540   43.2170   62.1930 O.co2 175  ASP175     -0.2456
     81  OD2        5.0660   42.6340   61.1200 O.co2 175  ASP175     -0.2456
     82  N          0.2760   42.0120   60.9190 N.am  176  PHE176     -0.1962
     83  CA        -0.6230   41.6090   61.9930 C.3   176  PHE176      0.1771
     84  C         -0.8900   40.1100   61.9930 C.2   176  PHE176      0.2619
     85  O         -0.5990   39.4110   61.0220 O.2   176  PHE176     -0.2715
     86  CB        -1.9340   42.3970   61.9040 C.3   176  PHE176      0.0574
     87  CG        -2.7710   42.0550   60.7150 C.ar  176  PHE176     -0.0200
     88  CD1       -3.7330   41.0500   60.7900 C.ar  176  PHE176     -0.0042
     89  CD2       -2.6020   42.7350   59.5160 C.ar  176  PHE176     -0.0042
     90  CE1       -4.5140   40.7300   59.6900 C.ar  176  PHE176     -0.0003
     91  CE2       -3.3790   42.4210   58.4090 C.ar  176  PHE176     -0.0003
     92  CZ        -4.3380   41.4160   58.4950 C.ar  176  PHE176     -0.0000
     93  N         -1.4350   39.6210   63.1010 N.am  177  LYS177     -0.1977
     94  CA        -1.7190   38.2040   63.2440 C.3   177  LYS177      0.1596
     95  C         -3.1820   37.9670   63.5880 C.2   177  LYS177      0.2287
     96  O         -3.7600   38.6790   64.4020 O.2   177  LYS177     -0.2864
     97  CB        -0.8230   37.6020   64.3330 C.3   177  LYS177      0.0298
     98  CG        -0.9530   36.0870   64.5060 C.3   177  LYS177      0.0038
     99  CD        -2.0280   35.7020   65.5170 C.3   177  LYS177      0.0206
    100  CE        -1.6130   36.0590   66.9350 C.3   177  LYS177      0.1093
    101  NZ        -2.7100   35.8200   67.9240 N.3   177  LYS177     -0.1314
    102  N         -1.2840   44.2680   70.4850 N.3   196  ASP196     -0.1225
    103  CA        -0.4900   43.1250   70.9460 C.3   196  ASP196      0.1805
    104  C         -0.1600   42.2380   69.7500 C.2   196  ASP196      0.2598
    105  O          0.9140   41.6370   69.6840 O.2   196  ASP196     -0.2718
    106  CB        -1.2880   42.2830   71.9440 C.3   196  ASP196      0.1424
    107  CG        -0.9770   42.6050   73.3900 C.2   196  ASP196      0.3668
    108  OD1       -0.5490   43.7410   73.6910 O.co2 196  ASP196     -0.2456
    109  OD2       -1.1930   41.7020   74.2310 O.co2 196  ASP196     -0.2456
    110  N         -1.1000   42.1590   68.8100 N.am  197  GLY197     -0.1942
    111  CA        -0.9230   41.3130   67.6440 C.3   197  GLY197      0.2014
    112  C         -0.7890   42.0120   66.3040 C.2   197  GLY197      0.2640
    113  O         -1.1450   41.4540   65.2670 O.2   197  GLY197     -0.2714
    114  N         -0.2750   43.2330   66.3150 N.am  198  SER198     -0.1935
    115  CA        -0.0750   43.9710   65.0810 C.3   198  SER198      0.2055
    116  C          0.9950   45.0250   65.2940 C.2   198  SER198      0.2642
    117  O          1.3330   45.3610   66.4250 O.2   198  SER198     -0.2714
    118  CB        -1.3680   44.6580   64.6460 C.3   198  SER198      0.2130
    119  OG        -1.7380   45.6630   65.5680 O.3   198  SER198     -0.2179
    120  N          1.5340   45.5290   64.1960 N.am  199  ARG199     -0.1977
    121  CA         2.5310   46.5840   64.2480 C.3   199  ARG199      0.1597
    122  C          1.8670   47.7800   63.5880 C.2   199  ARG199      0.2287
    123  O          1.3290   47.6820   62.4790 O.2   199  ARG199     -0.2864
    124  CB         3.8040   46.1800   63.5010 C.3   199  ARG199      0.0334
    125  CG         4.6630   45.1950   64.2730 C.3   199  ARG199      0.0492
    126  CD         5.9990   44.9630   63.5970 C.3   199  ARG199      0.2205
    127  NE         6.9000   44.2280   64.4750 N.pl3 199  ARG199     -0.0865
    128  CZ         7.0610   42.9110   64.4620 C.cat 199  ARG199      0.5346
    129  NH1        6.3880   42.1670   63.6050 N.pl3 199  ARG199      0.1354
    130  NH2        7.8880   42.3410   65.3290 N.pl3 199  ARG199      0.1354
    131  N          3.0360   46.6010   70.5700 N.3   211  LYS211     -0.1245
    132  CA         3.8090   45.8150   71.5160 C.3   211  LYS211      0.1561
    133  C          5.3240   45.8350   71.2990 C.2   211  LYS211      0.2260
    134  O          6.0750   45.4630   72.1960 O.2   211  LYS211     -0.2867
    135  CB         3.3010   44.3770   71.5580 C.3   211  LYS211      0.0271
    136  CG         3.7250   43.6650   72.8400 C.3   211  LYS211      0.0035
    137  CD         3.0020   42.3530   73.0530 C.3   211  LYS211      0.0206
    138  CE         3.3210   41.3460   71.9730 C.3   211  LYS211      0.1093
    139  NZ         2.9050   39.9950   72.4370 N.3   211  LYS211     -0.1314
    140  N          8.6580   44.7930   73.3670 N.3   215  ARG215     -0.1245
    141  CA         9.6230   43.8280   72.8500 C.3   215  ARG215      0.1563
    142  C         11.0130   44.4270   72.7260 C.2   215  ARG215      0.2260
    143  O         12.0080   43.7560   72.9800 O.2   215  ARG215     -0.2867
    144  CB         9.2220   43.3370   71.4530 C.3   215  ARG215      0.0307
    145  CG         7.9540   42.5240   71.3540 C.3   215  ARG215      0.0489
    146  CD         7.9400   41.8000   70.0090 C.3   215  ARG215      0.2205
    147  NE         6.6970   41.0800   69.7460 N.pl3 215  ARG215     -0.0865
    148  CZ         5.6260   41.6020   69.1540 C.cat 215  ARG215      0.5346
    149  NH1        5.6260   42.8650   68.7550 N.pl3 215  ARG215      0.1354
    150  NH2        4.5590   40.8460   68.9390 N.pl3 215  ARG215      0.1354
@<TRIPOS>BOND
     1    37    36    2
     2    36    35    1
     3    34    35    1
     4    35    38    1
     5    38    39    1
     6    30    29    2
     7    40    39    1
     8    40    41    1
     9    29    28    1
    10    41    42    2
    11    91    92   ar
    12    91    89   ar
    13    92    90   ar
    14    28    27    1
    15    28    31    1
    16    42    43    1
    17    42    44    1
    18    89    87   ar
    19    90    88   ar
    20    75    78    1
    21    75    74    1
    22    75    76    1
    23    78    79    1
    24    32    31    1
    25    31    33    1
    26    52    51    2
    27    87    88   ar
    28    87    86    1
    29    51    50    1
    30    82    76   am
    31    82    83    1
    32    55    56    1
    33    76    77    2
    34    85    84    2
    35    65    63   ar
    36    65    64   ar
    37    63    61   ar
    38    81    79   ar
    39    79    80   ar
    40    21    20    2
    41    64    62   ar
    42    61    60   ar
    43    54    53    1
    44    20    19    1
    45    86    83    1
    46    83    84    1
    47    84    93   am
    48    56    57    1
    49    56    59    1
    50    48    47    2
    51    62    60   ar
    52    60    59    1
    53    50    53    1
    54    50    49    1
    55    45    46    1
    56   123   122    2
    57    47    49   am
    58    47    46    1
    59    57    58    2
    60    93    94    1
    61    94    95    1
    62    94    97    1
    63    19    18    1
    64    19    22    1
    65   124   121    1
    66   124   125    1
    67    95    96    2
    68   122   121    1
    69   126   125    1
    70   126   127    1
    71   129   128    1
    72   120   121    1
    73   120   116   am
    74    22    23    1
    75    97    98    1
    76   128   127    2
    77   128   130    1
    78    98    99    1
    79   118   115    1
    80   118   119    1
    81    69    68    2
    82   115   116    1
    83   115   114    1
    84   113   112    2
    85   116   117    2
    86    99   100    1
    87    23    24    1
    88    68    67    1
    89    25    24   ar
    90   112   114   am
    91   112   111    1
    92    24    26   ar
    93   100   101    1
    94    70    67    1
    95    70    71    1
    96    67    66    1
    97   111   110    1
    98    71    73   ar
    99    71    72   ar
   100   149   148    1
   101   110   104   am
   102   150   148    1
   103   148   147    2
   104   105   104    2
   105   147   146    1
   106   104   103    1
   107    17    15   ar
   108    16    15   ar
   109   146   145    1
   110    15    14    1
   111   102   103    1
   112   131   132    1
   113   103   106    1
   114   133   132    1
   115   133   134    2
   116   145   144    1
   117   144   141    1
   118   132   135    1
   119   135   136    1
   120    14    11    1
   121   106   107    1
   122   138   139    1
   123   138   137    1
   124   142   141    1
   125   142   143    2
   126    10    11    1
   127   136   137    1
   128   141   140    1
   129    11    12    1
   130   107   108   ar
   131   107   109   ar
   132     9     8    1
   133     8     7    1
   134    12    13    2
   135     7     6    1
   136     6     5    1
   137     5     2    1
   138     1     2    1
   139     2     3    1
   140     3     4    2
