@<TRIPOS>MOLECULE
tmp/2gquA01.pdb
 221 212 0 0 0
SMALL
GASTEIGER

@<TRIPOS>ATOM
      1  N          1.9610    0.2790   -3.5060 N.3    48  ASN48      -0.1240
      2  CA         0.9560   -0.1960   -4.4720 C.3    48  ASN48       0.1653
      3  C          0.6670    0.7760   -5.6120 C.2    48  ASN48       0.2266
      4  O         -0.3450    0.6410   -6.3330 O.2    48  ASN48      -0.2867
      5  CB        -0.3600   -0.6190   -3.8020 C.3    48  ASN48       0.1155
      6  CG        -1.2430   -1.4490   -4.7460 C.2    48  ASN48       0.2627
      7  OD1       -2.4330   -1.1730   -4.9050 O.2    48  ASN48      -0.2716
      8  ND2       -0.6250   -2.4160   -5.4390 N.am   48  ASN48      -0.0877
      9  N         -3.1640   -8.1530    2.5160 N.3   116  GLY116     -0.1210
     10  CA        -3.1630   -9.4690    3.1400 C.3   116  GLY116      0.1956
     11  C         -2.4800  -10.5370    2.3390 C.2   116  GLY116      0.2613
     12  O         -2.0670  -10.3220    1.1950 O.2   116  GLY116     -0.2717
     13  N         -2.3860  -11.6930    2.9770 N.am  117  THR117     -0.1938
     14  CA        -1.8520  -12.9070    2.3760 C.3   117  THR117      0.2028
     15  C         -2.8900  -13.9940    2.6050 C.2   117  THR117      0.2642
     16  O         -3.9790  -13.7180    3.1070 O.2   117  THR117     -0.2714
     17  CB        -0.5560  -13.3290    3.0800 C.3   117  THR117      0.1808
     18  OG1       -0.8530  -13.6650    4.4460 O.3   117  THR117     -0.2208
     19  CG2        0.5050  -12.2050    3.0240 C.3   117  THR117      0.0379
     20  N         -2.5430  -15.2330    2.2640 N.am  118  ARG118     -0.1963
     21  CA        -3.4320  -16.3740    2.5320 C.3   118  ARG118      0.1729
     22  C         -3.6230  -16.6130    4.0390 C.2   118  ARG118      0.2616
     23  O         -4.5490  -17.3160    4.4460 O.2   118  ARG118     -0.2715
     24  CB        -2.9430  -17.6550    1.8260 C.3   118  ARG118      0.0348
     25  CG        -1.6120  -18.2410    2.3000 C.3   118  ARG118      0.0492
     26  CD        -1.2790  -19.5760    1.5740 C.3   118  ARG118      0.2205
     27  NE        -1.0960  -19.3570    0.1330 N.pl3 118  ARG118     -0.0865
     28  CZ         0.0200  -18.9020   -0.4430 C.cat 118  ARG118      0.5346
     29  NH1        1.0910  -18.6220    0.2840 N.pl3 118  ARG118      0.1354
     30  NH2        0.0600  -18.7140   -1.7620 N.pl3 118  ARG118      0.1354
     31  N         -2.7670  -15.9950    4.8500 N.am  119  PHE119     -0.1974
     32  CA        -2.7360  -16.1960    6.3030 C.3   119  PHE119      0.1639
     33  C         -3.5520  -15.1900    7.1090 C.2   119  PHE119      0.2290
     34  O         -3.7440  -15.3500    8.3180 O.2   119  PHE119     -0.2864
     35  CB        -1.2960  -16.1510    6.7850 C.3   119  PHE119      0.0560
     36  CG        -0.4050  -17.1320    6.0900 C.ar  119  PHE119     -0.0200
     37  CD1        0.3440  -16.7360    4.9850 C.ar  119  PHE119     -0.0042
     38  CD2       -0.3250  -18.4560    6.5240 C.ar  119  PHE119     -0.0042
     39  CE1        1.1700  -17.6340    4.3160 C.ar  119  PHE119     -0.0003
     40  CE2        0.5060  -19.3600    5.8670 C.ar  119  PHE119     -0.0003
     41  CZ         1.2560  -18.9470    4.7610 C.ar  119  PHE119     -0.0000
     42  N        -11.4830   -8.4100   -1.0380 N.3   149  TYR149     -0.1227
     43  CA       -10.1500   -8.7100   -1.5890 C.3   149  TYR149      0.1736
     44  C         -9.5150   -7.4750   -2.2180 C.2   149  TYR149      0.2595
     45  O        -10.0120   -6.9430   -3.2090 O.2   149  TYR149     -0.2718
     46  CB       -10.2080   -9.8860   -2.6010 C.3   149  TYR149      0.0548
     47  CG        -8.9350  -10.1080   -3.4370 C.ar  149  TYR149     -0.0200
     48  CD1       -7.8050  -10.7120   -2.8920 C.ar  149  TYR149     -0.0009
     49  CD2       -8.8860   -9.7250   -4.7800 C.ar  149  TYR149     -0.0009
     50  CE1       -6.6440  -10.9260   -3.6640 C.ar  149  TYR149      0.0417
     51  CE2       -7.7310   -9.9310   -5.5600 C.ar  149  TYR149      0.0417
     52  CZ        -6.6220  -10.5360   -4.9970 C.ar  149  TYR149      0.1957
     53  OH        -5.4860  -10.7320   -5.7820 O.3   149  TYR149     -0.2866
     54  N         -8.3930   -7.0400   -1.6300 N.am  150  ARG150     -0.1980
     55  CA        -7.6150   -5.8920   -2.1090 C.3   150  ARG150      0.1597
     56  C         -8.5090   -4.6510   -2.1690 C.2   150  ARG150      0.2287
     57  O         -8.3170   -3.7690   -3.0180 O.2   150  ARG150     -0.2864
     58  CB        -6.9730   -6.1700   -3.4860 C.3   150  ARG150      0.0334
     59  CG        -6.0050   -7.3800   -3.5550 C.3   150  ARG150      0.0492
     60  CD        -4.8530   -7.1460   -2.6040 C.3   150  ARG150      0.2205
     61  NE        -3.7690   -8.1280   -2.6640 N.pl3 150  ARG150     -0.0865
     62  CZ        -3.5920   -9.1150   -1.7880 C.cat 150  ARG150      0.5346
     63  NH1       -4.4620   -9.3140   -0.7970 N.pl3 150  ARG150      0.1354
     64  NH2       -2.5390   -9.9210   -1.9100 N.pl3 150  ARG150      0.1354
     65  N          6.4260  -19.1910    2.8170 N.3   185  ALA185     -0.1231
     66  CA         5.4380  -19.0450    1.7400 C.3   185  ALA185      0.1694
     67  C          5.7990  -17.9370    0.7420 C.2   185  ALA185      0.2591
     68  O          5.4140  -17.9970   -0.4240 O.2   185  ALA185     -0.2718
     69  CB         4.0520  -18.8060    2.3150 C.3   185  ALA185      0.0304
     70  N          6.5210  -16.9270    1.2160 N.am  186  ARG186     -0.1980
     71  CA         6.9220  -15.7920    0.3730 C.3   186  ARG186      0.1597
     72  C          8.2840  -15.9690   -0.3070 C.2   186  ARG186      0.2287
     73  O          8.7510  -15.0580   -0.9920 O.2   186  ARG186     -0.2864
     74  CB         6.9320  -14.4960    1.2050 C.3   186  ARG186      0.0334
     75  CG         5.5990  -14.1530    1.8930 C.3   186  ARG186      0.0492
     76  CD         5.6360  -12.7490    2.5210 C.3   186  ARG186      0.2205
     77  NE         5.5760  -11.7870    1.4340 N.pl3 186  ARG186     -0.0865
     78  CZ         4.5950  -10.9150    1.2050 C.cat 186  ARG186      0.5346
     79  NH1        3.5980  -10.7560    2.0700 N.pl3 186  ARG186      0.1354
     80  NH2        4.6520  -10.1650    0.1080 N.pl3 186  ARG186      0.1354
     81  N          9.2990  -14.8360   -3.9260 N.3   189  GLN189     -0.1245
     82  CA         9.0860  -13.4490   -4.3380 C.3   189  GLN189      0.1566
     83  C         10.3770  -12.6440   -4.3760 C.2   189  GLN189      0.2260
     84  O         11.2090  -12.7640   -3.4680 O.2   189  GLN189     -0.2867
     85  CB         8.1250  -12.7450   -3.3870 C.3   189  GLN189      0.0367
     86  CG         6.7210  -13.2960   -3.3390 C.3   189  GLN189      0.0905
     87  CD         5.8610  -12.4760   -2.3920 C.2   189  GLN189      0.2608
     88  OE1        6.2740  -11.4000   -1.9490 O.2   189  GLN189     -0.2717
     89  NE2        4.6830  -12.9840   -2.0640 N.am  189  GLN189     -0.0878
     90  N          6.4090   -2.9130   -7.1040 N.3   195  ALA195     -0.1231
     91  CA         5.2270   -2.5370   -6.3190 C.3   195  ALA195      0.1694
     92  C          4.4280   -3.8100   -6.0590 C.2   195  ALA195      0.2593
     93  O          3.1970   -3.8230   -6.1180 O.2   195  ALA195     -0.2718
     94  CB         4.3900   -1.4930   -7.0280 C.3   195  ALA195      0.0304
     95  N          5.1590   -4.8770   -5.7520 N.am  196  GLY196     -0.1942
     96  CA         4.5390   -6.1540   -5.4180 C.3   196  GLY196      0.2014
     97  C          3.8490   -6.7470   -6.6280 C.2   196  GLY196      0.2639
     98  O          4.3290   -6.5850   -7.7570 O.2   196  GLY196     -0.2714
     99  N          2.7240   -7.4240   -6.4060 N.am  197  CYS197     -0.1967
    100  CA         1.9810   -8.0220   -7.5100 C.3   197  CYS197      0.1712
    101  C          1.3050   -6.9600   -8.3580 C.2   197  CYS197      0.2296
    102  O          0.5130   -6.1770   -7.8470 O.2   197  CYS197     -0.2864
    103  CB         0.9320   -8.9970   -6.9930 C.3   197  CYS197      0.0983
    104  SG         1.6390  -10.5680   -6.5500 S.3   197  CYS197     -0.0798
    105  N         -0.8160   -7.5070  -10.9500 N.3   199  PHE199     -0.1241
    106  CA        -2.1690   -7.9100  -11.3060 C.3   199  PHE199      0.1605
    107  C         -2.8690   -8.5950  -10.1410 C.2   199  PHE199      0.2264
    108  O         -2.2550   -9.3370   -9.3820 O.2   199  PHE199     -0.2867
    109  CB        -2.1660   -8.8140  -12.5500 C.3   199  PHE199      0.0534
    110  CG        -1.5260   -8.1750  -13.7620 C.ar  199  PHE199     -0.0203
    111  CD1       -0.2080   -8.4620  -14.1140 C.ar  199  PHE199     -0.0042
    112  CD2       -2.2490   -7.2860  -14.5540 C.ar  199  PHE199     -0.0042
    113  CE1        0.3780   -7.8490  -15.2240 C.ar  199  PHE199     -0.0003
    114  CE2       -1.6720   -6.6770  -15.6550 C.ar  199  PHE199     -0.0003
    115  CZ        -0.3660   -6.9600  -15.9990 C.ar  199  PHE199     -0.0000
    116  N         -5.2160  -11.5190   -8.6050 N.3   201  ASN201     -0.1240
    117  CA        -5.4610  -12.9100   -8.9960 C.3   201  ASN201      0.1653
    118  C         -6.9120  -13.0780   -9.3870 C.2   201  ASN201      0.2266
    119  O         -7.7900  -12.6460   -8.6310 O.2   201  ASN201     -0.2867
    120  CB        -5.2040  -13.8720   -7.8330 C.3   201  ASN201      0.1155
    121  CG        -3.7470  -14.0890   -7.5460 C.2   201  ASN201      0.2627
    122  OD1       -2.8810  -13.9220   -8.4200 O.2   201  ASN201     -0.2716
    123  ND2       -3.4550  -14.5050   -6.3130 N.am  201  ASN201     -0.0877
    124  N         -7.2730  -18.6620   -9.1060 N.3   205  GLN205     -0.1231
    125  CA        -5.9570  -18.7820   -9.7510 C.3   205  GLN205      0.1698
    126  C         -4.8510  -17.8640   -9.2140 C.2   205  GLN205      0.2592
    127  O         -5.1000  -17.0060   -8.3680 O.2   205  GLN205     -0.2718
    128  CB        -6.1440  -18.5340  -11.2500 C.3   205  GLN205      0.0381
    129  CG        -7.2180  -19.4110  -11.8950 C.3   205  GLN205      0.0905
    130  CD        -7.9660  -18.7200  -13.0210 C.2   205  GLN205      0.2608
    131  OE1       -7.4610  -17.7890  -13.6430 O.2   205  GLN205     -0.2717
    132  NE2       -9.1880  -19.1720  -13.2800 N.am  205  GLN205     -0.0878
    133  N         -3.6260  -18.0750   -9.7090 N.am  206  SER206     -0.1952
    134  CA        -2.5010  -17.1650   -9.4820 C.3   206  SER206      0.1924
    135  C         -2.1170  -16.4920  -10.7970 C.2   206  SER206      0.2314
    136  O         -1.7440  -17.1740  -11.7620 O.2   206  SER206     -0.2863
    137  CB        -1.2840  -17.9120   -8.9100 C.3   206  SER206      0.2116
    138  OG        -0.1110  -17.1030   -8.9360 O.3   206  SER206     -0.2180
    139  N          0.4710  -14.7810  -11.2890 N.3   208  GLY208     -0.1210
    140  CA         1.8940  -15.0990  -11.4690 C.3   208  GLY208      0.1956
    141  C          2.1140  -16.3950  -12.2360 C.2   208  GLY208      0.2611
    142  O          2.9040  -16.4420  -13.1950 O.2   208  GLY208     -0.2717
    143  N          1.3920  -17.4420  -11.8340 N.am  209  ARG209     -0.1979
    144  CA         1.4870  -18.7520  -12.4760 C.3   209  ARG209      0.1597
    145  C          1.0130  -18.7000  -13.9370 C.2   209  ARG209      0.2287
    146  O          1.6400  -19.2800  -14.8220 O.2   209  ARG209     -0.2864
    147  CB         0.6960  -19.8080  -11.6840 C.3   209  ARG209      0.0334
    148  CG         1.1240  -21.2410  -11.9870 C.3   209  ARG209      0.0492
    149  CD         0.2620  -22.2990  -11.2490 C.3   209  ARG209      0.2205
    150  NE         0.0490  -22.0000   -9.8320 N.pl3 209  ARG209     -0.0865
    151  CZ        -1.1440  -21.8270   -9.2560 C.cat 209  ARG209      0.5346
    152  NH1       -2.2620  -21.9350   -9.9640 N.pl3 209  ARG209      0.1354
    153  NH2       -1.2230  -21.5550   -7.9590 N.pl3 209  ARG209      0.1354
    154  N          3.6910  -16.9160  -15.9380 N.3   212  ASP212     -0.1239
    155  CA         4.7890  -17.8860  -16.0410 C.3   212  ASP212      0.1674
    156  C          4.5160  -18.8600  -17.1790 C.2   212  ASP212      0.2266
    157  O          5.3860  -19.0740  -18.0320 O.2   212  ASP212     -0.2867
    158  CB         4.9320  -18.6440  -14.7030 C.3   212  ASP212      0.1410
    159  CG         6.2520  -19.4270  -14.5820 C.2   212  ASP212      0.3668
    160  OD1        6.5940  -19.8280  -13.4430 O.co2 212  ASP212     -0.2456
    161  OD2        6.9490  -19.6320  -15.6000 O.co2 212  ASP212     -0.2456
    162  N          7.7680  -14.2230  -18.3910 N.3   217  LYS217     -0.1245
    163  CA         8.8520  -13.8390  -17.4950 C.3   217  LYS217      0.1561
    164  C         10.0540  -13.4340  -18.3380 C.2   217  LYS217      0.2260
    165  O         10.3360  -14.0560  -19.3600 O.2   217  LYS217     -0.2867
    166  CB         9.1940  -14.9690  -16.5190 C.3   217  LYS217      0.0271
    167  CG         8.0230  -15.3230  -15.6120 C.3   217  LYS217      0.0035
    168  CD         8.2430  -16.6200  -14.8580 C.3   217  LYS217      0.0206
    169  CE         8.8870  -16.4010  -13.5130 C.3   217  LYS217      0.1093
    170  NZ         9.0170  -17.6910  -12.7640 N.3   217  LYS217     -0.1314
    171  N         11.8520  -14.2930  -11.2900 N.3   229  GLU229     -0.1231
    172  CA        11.5350  -15.0100  -10.0390 C.3   229  GLU229      0.1699
    173  C         10.0350  -15.2460   -9.7940 C.2   229  GLU229      0.2592
    174  O          9.6380  -16.3020   -9.2790 O.2   229  GLU229     -0.2718
    175  CB        12.1590  -14.2730   -8.8480 C.3   229  GLU229      0.0402
    176  CG        13.6670  -14.0070   -8.9990 C.3   229  GLU229      0.1161
    177  CD        14.2320  -13.1750   -7.8610 C.2   229  GLU229      0.3649
    178  OE1       14.2670  -13.6800   -6.7200 O.co2 229  GLU229     -0.2457
    179  OE2       14.6440  -12.0180   -8.1060 O.co2 229  GLU229     -0.2457
    180  N          9.2070  -14.2700  -10.1590 N.am  230  HIS230     -0.1962
    181  CA         7.7540  -14.3530   -9.9540 C.3   230  HIS230      0.1787
    182  C          7.0880  -13.5320  -11.0600 C.2   230  HIS230      0.2621
    183  O          7.3820  -12.3490  -11.2310 O.2   230  HIS230     -0.2715
    184  CB         7.3810  -13.8180   -8.5590 C.3   230  HIS230      0.0785
    185  CG         5.9720  -14.1250   -8.1260 C.ar  230  HIS230      0.0821
    186  ND1        4.8590  -13.6800   -8.8110 N.ar  230  HIS230     -0.2267
    187  CD2        5.4990  -14.7850   -7.0380 C.ar  230  HIS230      0.1154
    188  CE1        3.7650  -14.0880   -8.1890 C.ar  230  HIS230      0.1986
    189  NE2        4.1260  -14.7580   -7.1060 N.ar  230  HIS230     -0.2212
    190  N          6.2120  -14.1770  -11.8180 N.am  231  GLY231     -0.1940
    191  CA         5.6150  -13.5700  -13.0010 C.3   231  GLY231      0.2014
    192  C          4.7490  -12.3540  -12.7410 C.2   231  GLY231      0.2639
    193  O          4.5640  -11.5240  -13.6220 O.2   231  GLY231     -0.2714
    194  N          4.2110  -12.2530  -11.5290 N.am  232  ASN232     -0.1958
    195  CA         3.3400  -11.1200  -11.1960 C.3   232  ASN232      0.1819
    196  C          4.1250   -9.9150  -10.6790 C.2   232  ASN232      0.2621
    197  O          3.5450   -8.8880  -10.3480 O.2   232  ASN232     -0.2715
    198  CB         2.2360  -11.5530  -10.2040 C.3   232  ASN232      0.1195
    199  CG         0.9500  -10.7380  -10.3510 C.2   232  ASN232      0.2630
    200  OD1        0.8320   -9.8650  -11.2180 O.2   232  ASN232     -0.2716
    201  ND2       -0.0380  -11.0370   -9.4960 N.am  232  ASN232     -0.0877
    202  N          5.4490  -10.0210  -10.6300 N.am  233  PHE233     -0.1974
    203  CA         6.2550   -8.8970  -10.1930 C.3   233  PHE233      0.1639
    204  C          6.8910   -8.2510  -11.4110 C.2   233  PHE233      0.2290
    205  O          7.6800   -8.8850  -12.1070 O.2   233  PHE233     -0.2864
    206  CB         7.3340   -9.3320   -9.2010 C.3   233  PHE233      0.0560
    207  CG         6.8270   -9.5480   -7.7980 C.ar  233  PHE233     -0.0200
    208  CD1        6.0020  -10.6280   -7.4930 C.ar  233  PHE233     -0.0042
    209  CD2        7.1770   -8.6720   -6.7880 C.ar  233  PHE233     -0.0042
    210  CE1        5.5310  -10.8230   -6.1920 C.ar  233  PHE233     -0.0003
    211  CE2        6.7190   -8.8610   -5.4740 C.ar  233  PHE233     -0.0003
    212  CZ         5.8960   -9.9480   -5.1830 C.ar  233  PHE233     -0.0000
    213  N         -3.6770   -4.7730   -9.9950 N.3   261  GLU261     -0.1245
    214  CA        -3.8350   -4.5320   -8.5540 C.3   261  GLU261      0.1567
    215  C         -3.3280   -3.1310   -8.1960 C.2   261  GLU261      0.2260
    216  O         -3.9030   -2.4660   -7.3350 O.2   261  GLU261     -0.2867
    217  CB        -3.1360   -5.5970   -7.6850 C.3   261  GLU261      0.0388
    218  CG        -3.1000   -5.2620   -6.1690 C.3   261  GLU261      0.1160
    219  CD        -2.5440   -6.3930   -5.3040 C.2   261  GLU261      0.3649
    220  OE1       -1.6950   -6.1310   -4.4200 O.co2 261  GLU261     -0.2457
    221  OE2       -2.9830   -7.5430   -5.4870 O.co2 261  GLU261     -0.2457
@<TRIPOS>BOND
     1   165   164    2
     2   162   163    1
     3   164   163    1
     4   157   156    2
     5   163   166    1
     6   156   155    1
     7   166   167    1
     8   155   154    1
     9   155   158    1
    10   115   114   ar
    11   115   113   ar
    12   114   112   ar
    13   167   168    1
    14   161   159   ar
    15   113   111   ar
    16   168   169    1
    17   146   145    2
    18   158   159    1
    19   159   160   ar
    20   112   110   ar
    21   111   110   ar
    22   145   144    1
    23   110   109    1
    24   131   130    2
    25   193   192    2
    26   169   170    1
    27   132   130   am
    28   142   141    2
    29   130   129    1
    30   191   192    1
    31   191   190    1
    32   192   194   am
    33   109   106    1
    34   144   143    1
    35   144   147    1
    36   141   143   am
    37   141   140    1
    38   205   204    2
    39   148   147    1
    40   148   149    1
    41   129   128    1
    42   190   182   am
    43   136   135    2
    44   194   195    1
    45   140   139    1
    46   204   203    1
    47   106   105    1
    48   106   107    1
    49   171   172    1
    50   128   125    1
    51   149   150    1
    52   183   182    2
    53   200   199    2
    54   195   196    1
    55   195   198    1
    56   182   181    1
    57   135   134    1
    58   196   202   am
    59   196   197    2
    60   202   203    1
    61   199   198    1
    62   199   201   am
    63   203   206    1
    64   180   181    1
    65   180   173   am
    66   107   108    2
    67   172   173    1
    68   172   175    1
    69   213   214    1
    70   152   151    1
    71   181   184    1
    72   150   151    2
    73   173   174    2
    74   125   126    1
    75   125   124    1
    76   133   134    1
    77   133   126   am
    78   134   137    1
    79   118   117    1
    80   118   119    2
    81   151   153    1
    82   126   127    2
    83   206   207    1
    84   176   175    1
    85   176   177    1
    86   117   116    1
    87   117   120    1
    88   138   137    1
    89   186   188   ar
    90   186   185   ar
    91   184   185    1
    92   214   215    1
    93   214   217    1
    94   122   121    2
    95   101   102    2
    96   101   100    1
    97   215   216    2
    98   188   189   ar
    99   185   187   ar
   100   179   177   ar
   101   177   178   ar
   102   120   121    1
   103   207   208   ar
   104   207   209   ar
   105    98    97    2
   106   217   218    1
   107   121   123   am
   108   100   103    1
   109   100    99    1
   110   208   210   ar
   111   189   187   ar
   112    90    91    1
   113    94    91    1
   114   103   104    1
   115   209   211   ar
   116    97    99   am
   117    97    96    1
   118     4     3    2
   119    91    92    1
   120   210   212   ar
   121   218   219    1
   122    93    92    2
   123    92    95   am
   124    53    52    1
   125    95    96    1
   126     3     2    1
   127    51    52   ar
   128    51    49   ar
   129   221   219   ar
   130   211   212   ar
   131     8     6   am
   132   219   220   ar
   133    52    50   ar
   134     7     6    2
   135    49    47   ar
   136     6     5    1
   137     2     5    1
   138     2     1    1
   139    83    82    1
   140    83    84    2
   141    82    81    1
   142    82    85    1
   143    50    48   ar
   144    59    58    1
   145    59    60    1
   146    58    55    1
   147    47    48   ar
   148    47    46    1
   149    85    86    1
   150    86    87    1
   151    45    44    2
   152    57    56    2
   153    61    60    1
   154    61    62    2
   155    46    43    1
   156    87    89   am
   157    87    88    2
   158    44    54   am
   159    44    43    1
   160    56    55    1
   161    55    54    1
   162    64    62    1
   163    62    63    1
   164    30    28    1
   165    43    42    1
   166    73    72    2
   167    28    27    2
   168    28    29    1
   169    68    67    2
   170    72    71    1
   171    80    78    1
   172    27    26    1
   173    71    74    1
   174    71    70    1
   175    67    70   am
   176    67    66    1
   177    12    11    2
   178    74    75    1
   179    78    77    2
   180    78    79    1
   181    77    76    1
   182    26    25    1
   183    66    69    1
   184    66    65    1
   185    24    25    1
   186    24    21    1
   187    75    76    1
   188    20    21    1
   189    20    15   am
   190    11    13   am
   191    11    10    1
   192    14    15    1
   193    14    13    1
   194    14    17    1
   195     9    10    1
   196    21    22    1
   197    15    16    2
   198    19    17    1
   199    17    18    1
   200    22    23    2
   201    22    31   am
   202    39    41   ar
   203    39    37   ar
   204    41    40   ar
   205    31    32    1
   206    37    36   ar
   207    40    38   ar
   208    36    38   ar
   209    36    35    1
   210    32    35    1
   211    32    33    1
   212    33    34    2
