@<TRIPOS>MOLECULE
tmp/2gqxA01.pdb
 112 104 0 0 0
SMALL
GASTEIGER

@<TRIPOS>ATOM
      1  N        -23.1910   17.4850   11.4340 N.3    78  TRP78      -0.1241
      2  CA       -22.2640   18.5210   11.0010 C.3    78  TRP78       0.1605
      3  C        -21.5190   19.1570   12.1650 C.2    78  TRP78       0.2264
      4  O        -22.0290   19.2490   13.2790 O.2    78  TRP78      -0.2867
      5  CB       -23.0260   19.6220   10.2610 C.3    78  TRP78       0.0550
      6  CG       -22.6980   19.8130    8.8040 C.ar   78  TRP78       0.0003
      7  CD1      -22.3420   20.9860    8.1950 C.ar   78  TRP78       0.0946
      8  CD2      -22.8130   18.8430    7.7570 C.ar   78  TRP78       0.0152
      9  NE1      -22.2400   20.8100    6.8360 N.ar   78  TRP78      -0.2442
     10  CE2      -22.5250   19.5050    6.5390 C.ar   78  TRP78       0.0810
     11  CE3      -23.1330   17.4810    7.7260 C.ar   78  TRP78       0.0012
     12  CZ2      -22.5510   18.8520    5.3070 C.ar   78  TRP78       0.0191
     13  CZ3      -23.1570   16.8310    6.4980 C.ar   78  TRP78       0.0001
     14  CH2      -22.8680   17.5220    5.3050 C.ar   78  TRP78       0.0015
     15  N        -28.7010   21.6150   10.5740 N.3    87  PHE87      -0.1241
     16  CA       -28.7310   20.6050    9.5230 C.3    87  PHE87       0.1605
     17  C        -29.9780   19.7380    9.6290 C.2    87  PHE87       0.2264
     18  O        -30.1350   19.0160   10.5840 O.2    87  PHE87      -0.2867
     19  CB       -27.4860   19.7270    9.6320 C.3    87  PHE87       0.0534
     20  CG       -27.3400   18.7380    8.5260 C.ar   87  PHE87      -0.0203
     21  CD1      -26.4860   18.9930    7.4610 C.ar   87  PHE87      -0.0042
     22  CD2      -28.0520   17.5440    8.5460 C.ar   87  PHE87      -0.0042
     23  CE1      -26.3390   18.0760    6.4360 C.ar   87  PHE87      -0.0003
     24  CE2      -27.9150   16.6160    7.5210 C.ar   87  PHE87      -0.0003
     25  CZ       -27.0580   16.8800    6.4650 C.ar   87  PHE87      -0.0000
     26  N        -31.5000   18.1560    6.5340 N.3    89  PHE89      -0.1241
     27  CA       -31.7810   17.5530    5.2400 C.3    89  PHE89       0.1605
     28  C        -32.2600   16.1300    5.4540 C.2    89  PHE89       0.2264
     29  O        -31.8530   15.4590    6.4020 O.2    89  PHE89      -0.2867
     30  CB       -30.5360   17.5350    4.3410 C.3    89  PHE89       0.0534
     31  CG       -30.0250   18.9000    3.9720 C.ar   89  PHE89      -0.0203
     32  CD1      -30.8990   19.9010    3.5590 C.ar   89  PHE89      -0.0042
     33  CD2      -28.6650   19.1800    4.0230 C.ar   89  PHE89      -0.0042
     34  CE1      -30.4160   21.1650    3.2040 C.ar   89  PHE89      -0.0003
     35  CE2      -28.1750   20.4340    3.6690 C.ar   89  PHE89      -0.0003
     36  CZ       -29.0490   21.4270    3.2600 C.ar   89  PHE89      -0.0000
     37  N        -30.6430   12.4000    5.3160 N.3    92  THR92      -0.1218
     38  CA       -29.3970   12.4820    6.0680 C.3    92  THR92       0.1862
     39  C        -29.4190   12.8210    7.5520 C.2    92  THR92       0.2287
     40  O        -28.5350   12.3880    8.2890 O.2    92  THR92      -0.2866
     41  CB       -28.4510   13.4450    5.3990 C.3    92  THR92       0.1770
     42  OG1      -28.6180   13.3490    3.9850 O.3    92  THR92      -0.2211
     43  CG2      -27.0300   13.0940    5.7600 C.3    92  THR92       0.0375
     44  N        -30.9820   17.6410    0.2890 N.3   235  ALA235     -0.1245
     45  CA       -30.0370   16.5440    0.4380 C.3   235  ALA235      0.1562
     46  C        -29.5260   16.1790   -0.9400 C.2   235  ALA235      0.2260
     47  O        -28.3340   15.9800   -1.1310 O.2   235  ALA235     -0.2867
     48  CB       -30.7180   15.3360    1.0840 C.3   235  ALA235      0.0290
     49  N        -27.1800   19.1000   -2.3040 N.3   238  LEU238     -0.1231
     50  CA       -25.8650   19.0850   -1.6820 C.3   238  LEU238      0.1693
     51  C        -25.0120   17.9680   -2.2650 C.2   238  LEU238      0.2592
     52  O        -23.8220   18.1500   -2.5320 O.2   238  LEU238     -0.2718
     53  CB       -26.0010   18.9010   -0.1670 C.3   238  LEU238      0.0284
     54  CG       -24.7110   18.9880    0.6570 C.3   238  LEU238      0.0019
     55  CD1      -24.0080   20.3330    0.4260 C.3   238  LEU238      0.0001
     56  CD2      -25.0550   18.8060    2.1180 C.3   238  LEU238      0.0001
     57  N        -25.6360   16.8150   -2.4770 N.am  239  GLY239     -0.1957
     58  CA       -24.9260   15.6740   -3.0160 C.3   239  GLY239      0.1869
     59  C        -24.4420   15.7410   -4.4510 C.2   239  GLY239      0.2309
     60  O        -23.2670   15.5180   -4.7280 O.2   239  GLY239     -0.2863
     61  N        -19.6840   16.9460   -4.5440 N.3   243  THR243     -0.1218
     62  CA       -18.8440   15.7890   -4.2840 C.3   243  THR243      0.1862
     63  C        -18.1410   15.2040   -5.5050 C.2   243  THR243      0.2287
     64  O        -16.9540   15.1400   -5.5140 O.2   243  THR243     -0.2866
     65  CB       -19.5570   14.6900   -3.4790 C.3   243  THR243      0.1770
     66  OG1      -20.8610   14.5180   -3.9760 O.3   243  THR243     -0.2211
     67  CG2      -19.7690   15.1130   -2.0550 C.3   243  THR243      0.0375
     68  N        -14.8760   12.7770    1.8440 N.3   286  VAL286     -0.1245
     69  CA       -15.9630   13.1680    2.7240 C.3   286  VAL286      0.1561
     70  C        -15.6960   12.8610    4.1920 C.2   286  VAL286      0.2260
     71  O        -15.0840   11.8430    4.5250 O.2   286  VAL286     -0.2867
     72  CB       -17.2600   12.4620    2.3290 C.3   286  VAL286      0.0252
     73  CG1      -18.3890   12.9110    3.2350 C.3   286  VAL286      0.0019
     74  CG2      -17.5650   12.7310    0.8650 C.3   286  VAL286      0.0019
     75  N        -18.0960   13.5460    7.7240 N.3   288  ASP288     -0.1239
     76  CA       -19.0980   14.1790    8.5620 C.3   288  ASP288      0.1674
     77  C        -19.2050   13.3320    9.8210 C.2   288  ASP288      0.2266
     78  O        -18.3220   12.5070   10.0740 O.2   288  ASP288     -0.2867
     79  CB       -20.4280   14.3710    7.8010 C.3   288  ASP288      0.1410
     80  CG       -21.2540   13.1070    7.6550 C.2   288  ASP288      0.3668
     81  OD1      -20.7130   11.9800    7.6990 O.co2 288  ASP288     -0.2456
     82  OD2      -22.4830   13.2700    7.4570 O.co2 288  ASP288     -0.2456
     83  N        -15.2090    9.4560    6.6720 N.3   313  GLN313     -0.1245
     84  CA       -15.3830    8.4000    5.6950 C.3   313  GLN313      0.1566
     85  C        -14.0660    8.2380    4.9510 C.2   313  GLN313      0.2260
     86  O        -13.6810    7.1310    4.5570 O.2   313  GLN313     -0.2867
     87  CB       -16.5090    8.7580    4.7170 C.3   313  GLN313      0.0367
     88  CG       -17.9170    8.5550    5.2880 C.3   313  GLN313      0.0905
     89  CD       -18.4510    9.7530    6.0670 C.2   313  GLN313      0.2608
     90  OE1      -17.7010   10.6620    6.4380 O.2   313  GLN313     -0.2717
     91  NE2      -19.7630    9.7440    6.3360 N.am  313  GLN313     -0.0878
     92  N        -24.3540    6.3550    0.6480 N.3   348  CYS348     -0.1235
     93  CA       -24.6670    7.2850   -0.4310 C.3   348  CYS348      0.1677
     94  C        -25.6170    6.7930   -1.5210 C.2   348  CYS348      0.2270
     95  O        -25.3540    5.8040   -2.1950 O.2   348  CYS348     -0.2867
     96  CB       -23.3770    7.7800   -1.0910 C.3   348  CYS348      0.0956
     97  SG       -23.6780    8.8030   -2.5570 S.3   348  CYS348     -0.0801
     98  N        -16.1320   19.4460    5.3270 N.3   386  ILE386     -0.1231
     99  CA       -17.0050   18.2740    5.3740 C.3   386  ILE386      0.1692
    100  C        -16.6930   17.4870    4.1010 C.2   386  ILE386      0.2591
    101  O        -16.6280   16.2570    4.0970 O.2   386  ILE386     -0.2718
    102  CB       -18.4950   18.6850    5.3890 C.3   386  ILE386      0.0266
    103  CG1      -18.8270   19.3980    6.7070 C.3   386  ILE386      0.0019
    104  CG2      -19.3740   17.4560    5.1700 C.3   386  ILE386      0.0020
    105  CD1      -18.7510   18.5190    7.9480 C.3   386  ILE386      0.0001
    106  N        -16.5040   18.2220    3.0130 N.am  387  VAL387     -0.1980
    107  CA       -16.1430   17.6220    1.7360 C.3   387  VAL387      0.1595
    108  C        -14.9050   18.3860    1.2880 C.2   387  VAL387      0.2287
    109  O        -14.9590   19.5970    1.0890 O.2   387  VAL387     -0.2864
    110  CB       -17.2440   17.7980    0.6880 C.3   387  VAL387      0.0276
    111  CG1      -16.7520   17.3030   -0.6690 C.3   387  VAL387      0.0022
    112  CG2      -18.4760   17.0480    1.1120 C.3   387  VAL387      0.0022
@<TRIPOS>BOND
     1    64    63    2
     2    63    62    1
     3    60    59    2
     4    61    62    1
     5    59    58    1
     6    62    65    1
     7    66    65    1
     8    65    67    1
     9    58    57    1
    10    97    96    1
    11    52    51    2
    12    57    51   am
    13    49    50    1
    14    51    50    1
    15    95    94    2
    16    50    53    1
    17    94    93    1
    18    47    46    2
    19    96    93    1
    20    46    45    1
    21   111   110    1
    22    93    92    1
    23    53    54    1
    24    44    45    1
    25    55    54    1
    26    45    48    1
    27    54    56    1
    28   110   112    1
    29   110   107    1
    30    74    72    1
    31   109   108    2
    32   108   107    1
    33   107   106    1
    34    68    69    1
    35    72    69    1
    36    72    73    1
    37    69    70    1
    38   106   100   am
    39    34    36   ar
    40    34    32   ar
    41    36    35   ar
    42    32    31   ar
    43    35    33   ar
    44    31    33   ar
    45    31    30    1
    46    42    41    1
    47   101   100    2
    48   100    99    1
    49    70    71    2
    50    30    27    1
    51    86    85    2
    52    87    88    1
    53    87    84    1
    54    85    84    1
    55   104   102    1
    56    27    28    1
    57    27    26    1
    58    88    89    1
    59    14    12   ar
    60    14    13   ar
    61    12    10   ar
    62    37    38    1
    63    98    99    1
    64    99   102    1
    65   102   103    1
    66    41    43    1
    67    41    38    1
    68    28    29    2
    69    84    83    1
    70    89    91   am
    71    89    90    2
    72    38    39    1
    73    23    25   ar
    74    23    21   ar
    75    25    24   ar
    76    13    11   ar
    77    10     9   ar
    78    10     8   ar
    79   103   105    1
    80     9     7   ar
    81    82    80   ar
    82    21    20   ar
    83    24    22   ar
    84    39    40    2
    85    80    81   ar
    86    80    79    1
    87    75    76    1
    88    11     8   ar
    89     8     6   ar
    90    79    76    1
    91     7     6   ar
    92    20    22   ar
    93    20    19    1
    94    76    77    1
    95     6     5    1
    96    16    17    1
    97    16    19    1
    98    16    15    1
    99    17    18    2
   100    77    78    2
   101     5     2    1
   102     2     1    1
   103     2     3    1
   104     3     4    2
