@<TRIPOS>MOLECULE
tmp/2gr0A01.pdb
 170 162 0 0 0
SMALL
GASTEIGER

@<TRIPOS>ATOM
      1  N         67.9580   22.2800    3.0430 N.3   109  ARG109     -0.1245
      2  CA        68.0420   23.5050    2.2380 C.3   109  ARG109      0.1563
      3  C         69.1330   23.3570    1.1740 C.2   109  ARG109      0.2260
      4  O         70.2570   22.9210    1.4760 O.2   109  ARG109     -0.2867
      5  CB        68.4060   24.7090    3.1120 C.3   109  ARG109      0.0307
      6  CG        67.4040   25.1300    4.1640 C.3   109  ARG109      0.0489
      7  CD        67.9720   26.3170    4.9740 C.3   109  ARG109      0.2205
      8  NE        68.3820   27.4200    4.1030 N.pl3 109  ARG109     -0.0865
      9  CZ        69.4500   28.2040    4.2840 C.cat 109  ARG109      0.5346
     10  NH1       70.2860   28.0340    5.3140 N.pl3 109  ARG109      0.1354
     11  NH2       69.6960   29.1690    3.4020 N.pl3 109  ARG109      0.1354
     12  N         71.8320   25.1040   -1.4950 N.3   111  LEU111     -0.1245
     13  CA        72.6830   26.2830   -1.5220 C.3   111  LEU111      0.1561
     14  C         72.5550   26.9410   -2.8830 C.2   111  LEU111      0.2260
     15  O         73.0300   26.3960   -3.8900 O.2   111  LEU111     -0.2867
     16  CB        74.1290   25.8730   -1.2650 C.3   111  LEU111      0.0270
     17  CG        75.1590   26.9680   -1.0640 C.3   111  LEU111      0.0019
     18  CD1       74.7710   27.9000    0.0840 C.3   111  LEU111      0.0001
     19  CD2       76.4800   26.2800   -0.7850 C.3   111  LEU111      0.0001
     20  N         79.6670   22.2940    3.6190 N.3   146  VAL146     -0.1231
     21  CA        79.1260   23.6380    3.7660 C.3   146  VAL146      0.1692
     22  C         78.1240   23.6230    4.9040 C.2   146  VAL146      0.2593
     23  O         77.0570   23.0090    4.8050 O.2   146  VAL146     -0.2718
     24  CB        78.4930   24.1820    2.4580 C.3   146  VAL146      0.0266
     25  CG1       78.0680   25.6370    2.6610 C.3   146  VAL146      0.0020
     26  CG2       79.4970   24.0840    1.3180 C.3   146  VAL146      0.0020
     27  N         78.5010   24.2740    5.9970 N.am  147  GLY147     -0.1942
     28  CA        77.6680   24.3210    7.1870 C.3   147  GLY147      0.2014
     29  C         78.3190   23.6190    8.3620 C.2   147  GLY147      0.2639
     30  O         78.7180   22.4550    8.2640 O.2   147  GLY147     -0.2714
     31  N         78.4200   24.3280    9.4810 N.am  148  GLY148     -0.1939
     32  CA        79.0590   23.7770   10.6710 C.3   148  GLY148      0.2014
     33  C         78.0660   23.3550   11.7340 C.2   148  GLY148      0.2639
     34  O         78.3110   23.5500   12.9260 O.2   148  GLY148     -0.2714
     35  N         76.9330   22.8080   11.3030 N.am  149  GLY149     -0.1939
     36  CA        75.9380   22.2380   12.2080 C.3   149  GLY149      0.2014
     37  C         76.2830   20.8100   12.5950 C.2   149  GLY149      0.2639
     38  O         77.3050   20.2660   12.1770 O.2   149  GLY149     -0.2714
     39  N         75.4220   20.1900   13.3960 N.am  150  VAL150     -0.1963
     40  CA        75.7550   18.8620   13.9200 C.3   150  VAL150      0.1727
     41  C         75.9540   17.8090   12.8250 C.2   150  VAL150      0.2616
     42  O         76.9120   17.0350   12.8960 O.2   150  VAL150     -0.2715
     43  CB        74.7670   18.3620   15.0130 C.3   150  VAL150      0.0290
     44  CG1       75.0200   19.0990   16.3300 C.3   150  VAL150      0.0023
     45  CG2       73.3520   18.5420   14.5620 C.3   150  VAL150      0.0023
     46  N         75.0840   17.7870   11.8180 N.am  151  ILE151     -0.1963
     47  CA        75.1960   16.7710   10.7480 C.3   151  ILE151      0.1727
     48  C         76.4820   16.9730    9.9390 C.2   151  ILE151      0.2616
     49  O         77.1910   16.0190    9.6890 O.2   151  ILE151     -0.2715
     50  CB        73.9140   16.6780    9.8620 C.3   151  ILE151      0.0290
     51  CG1       72.7420   16.2210   10.7390 C.3   151  ILE151      0.0022
     52  CG2       74.1330   15.7330    8.6570 C.3   151  ILE151      0.0023
     53  CD1       71.3680   16.2750   10.0690 C.3   151  ILE151      0.0001
     54  N         76.8040   18.2190    9.6030 N.am  152  GLY152     -0.1955
     55  CA        78.0670   18.5270    8.9230 C.3   152  GLY152      0.1869
     56  C         79.2620   18.0630    9.7500 C.2   152  GLY152      0.2309
     57  O         80.2120   17.4970    9.2180 O.2   152  GLY152     -0.2863
     58  N         83.1520   25.0170    5.6360 N.3   169  VAL169     -0.1231
     59  CA        82.8870   26.4550    5.5380 C.3   169  VAL169      0.1692
     60  C         81.6340   26.7780    6.3440 C.2   169  VAL169      0.2592
     61  O         80.5850   26.1520    6.1500 O.2   169  VAL169     -0.2718
     62  CB        82.7020   26.8830    4.0560 C.3   169  VAL169      0.0266
     63  CG1       82.0930   28.2820    3.9590 C.3   169  VAL169      0.0020
     64  CG2       84.0360   26.8330    3.3420 C.3   169  VAL169      0.0020
     65  N         81.7560   27.7490    7.2490 N.am  170  GLU170     -0.1966
     66  CA        80.6600   28.1620    8.1290 C.3   170  GLU170      0.1733
     67  C         80.5060   29.6880    8.0750 C.2   170  GLU170      0.2617
     68  O         81.4820   30.4150    8.2780 O.2   170  GLU170     -0.2715
     69  CB        80.9430   27.6980    9.5640 C.3   170  GLU170      0.0429
     70  CG        80.0520   28.3360   10.6630 C.3   170  GLU170      0.1163
     71  CD        78.5730   28.0590   10.4640 C.2   170  GLU170      0.3649
     72  OE1       77.7740   29.0230   10.4050 O.co2 170  GLU170     -0.2457
     73  OE2       78.2100   26.8650   10.3250 O.co2 170  GLU170     -0.2457
     74  N         79.2840   30.1650    7.8430 N.am  171  THR171     -0.1937
     75  CA        79.0340   31.6140    7.7230 C.3   171  THR171      0.2028
     76  C         79.1700   32.3500    9.0460 C.2   171  THR171      0.2642
     77  O         79.5820   33.5080    9.0680 O.2   171  THR171     -0.2714
     78  CB        77.6430   31.9220    7.1690 C.3   171  THR171      0.1808
     79  OG1       76.6560   31.2830    7.9940 O.3   171  THR171     -0.2208
     80  CG2       77.5150   31.3930    5.7760 C.3   171  THR171      0.0379
     81  N         78.8150   31.6800   10.1360 N.am  172  GLN172     -0.1976
     82  CA        78.9090   32.2740   11.4700 C.3   172  GLN172      0.1601
     83  C         80.3460   32.2270   12.0050 C.2   172  GLN172      0.2287
     84  O         81.1950   31.5300   11.4500 O.2   172  GLN172     -0.2864
     85  CB        77.9360   31.5740   12.4340 C.3   172  GLN172      0.0394
     86  CG        76.4560   31.7080   12.0510 C.3   172  GLN172      0.0908
     87  CD        76.0090   33.1580   11.9340 C.2   172  GLN172      0.2608
     88  OE1       76.2180   33.9580   12.8490 O.2   172  GLN172     -0.2717
     89  NE2       75.4170   33.5060   10.7940 N.am  172  GLN172     -0.0878
     90  N         77.7420   25.1210   15.2250 N.3   176  MET176     -0.1230
     91  CA        76.5390   24.7970   15.9940 C.3   176  MET176      0.1702
     92  C         75.8780   26.0470   16.6130 C.2   176  MET176      0.2593
     93  O         75.5050   26.0510   17.7920 O.2   176  MET176     -0.2718
     94  CB        76.8870   23.7460   17.0720 C.3   176  MET176      0.0401
     95  CG        77.3430   22.3940   16.4770 C.3   176  MET176      0.0596
     96  SD        78.0980   21.2710   17.6800 S.3   176  MET176     -0.1393
     97  CE        76.7730   20.9310   18.8570 C.3   176  MET176      0.0692
     98  N         75.7400   27.1160   15.8190 N.am  177  SER177     -0.1938
     99  CA        75.1430   28.3460   16.3540 C.3   177  SER177      0.2055
    100  C         73.6740   28.1390   16.7400 C.2   177  SER177      0.2642
    101  O         73.1650   28.8100   17.6420 O.2   177  SER177     -0.2714
    102  CB        75.3220   29.5470   15.4030 C.3   177  SER177      0.2130
    103  OG        74.8340   29.2470   14.1070 O.3   177  SER177     -0.2179
    104  N         73.0180   27.1690   16.1000 N.am  178  ARG178     -0.1977
    105  CA        71.5790   26.9660   16.2740 C.3   178  ARG178      0.1597
    106  C         71.1970   26.5600   17.6880 C.2   178  ARG178      0.2287
    107  O         70.2850   27.1510   18.2760 O.2   178  ARG178     -0.2864
    108  CB        71.0240   25.9450   15.2680 C.3   178  ARG178      0.0334
    109  CG        69.5490   25.5790   15.5110 C.3   178  ARG178      0.0492
    110  CD        68.9810   24.6720   14.4300 C.3   178  ARG178      0.2205
    111  NE        69.7800   23.4620   14.2510 N.pl3 178  ARG178     -0.0865
    112  CZ        69.6740   22.3610   14.9910 C.cat 178  ARG178      0.5346
    113  NH1       70.4610   21.3210   14.7350 N.pl3 178  ARG178      0.1354
    114  NH2       68.7910   22.2900   15.9850 N.pl3 178  ARG178      0.1354
    115  N         82.8360   32.6180    6.4840 N.3   203  ARG203     -0.1231
    116  CA        82.9450   32.4760    5.0300 C.3   203  ARG203      0.1694
    117  C         81.6440   31.9080    4.4710 C.2   203  ARG203      0.2593
    118  O         80.9160   31.1720    5.1620 O.2   203  ARG203     -0.2718
    119  CB        84.1060   31.5440    4.6470 C.3   203  ARG203      0.0321
    120  CG        85.5390   32.0740    4.9610 C.3   203  ARG203      0.0489
    121  CD        85.7400   33.4980    4.4750 C.3   203  ARG203      0.2205
    122  NE        87.0720   34.0300    4.7720 N.pl3 203  ARG203     -0.0865
    123  CZ        87.3690   34.8110    5.8030 C.cat 203  ARG203      0.5346
    124  NH1       86.4290   35.1410    6.6850 N.pl3 203  ARG203      0.1354
    125  NH2       88.6220   35.2630    5.9570 N.pl3 203  ARG203      0.1354
    126  N         81.3600   32.2550    3.2150 N.am  204  SER204     -0.1938
    127  CA        80.1950   31.7670    2.5020 C.3   204  SER204      0.2055
    128  C         80.6620   31.3470    1.1200 C.2   204  SER204      0.2642
    129  O         81.6520   31.8660    0.6170 O.2   204  SER204     -0.2714
    130  CB        79.1380   32.8700    2.3760 C.3   204  SER204      0.2130
    131  OG        78.5950   33.1760    3.6570 O.3   204  SER204     -0.2179
    132  N         79.9450   30.4060    0.5250 N.am  205  VAL205     -0.1977
    133  CA        80.1990   29.9800   -0.8580 C.3   205  VAL205      0.1596
    134  C         79.5160   30.9160   -1.8560 C.2   205  VAL205      0.2287
    135  O         78.3090   31.1740   -1.7460 O.2   205  VAL205     -0.2864
    136  CB        79.7020   28.5380   -1.0740 C.3   205  VAL205      0.0276
    137  CG1       79.7700   28.1420   -2.5820 C.3   205  VAL205      0.0022
    138  CG2       80.4890   27.5730   -0.2100 C.3   205  VAL205      0.0022
    139  N         75.1410   21.1640    4.2750 N.3   229  GLY229     -0.1210
    140  CA        74.3700   20.9680    5.5070 C.3   229  GLY229      0.1956
    141  C         74.1140   22.3080    6.1630 C.2   229  GLY229      0.2612
    142  O         74.7020   22.6200    7.2070 O.2   229  GLY229     -0.2717
    143  N         73.2480   23.0990    5.5310 N.am  230  ILE230     -0.1965
    144  CA        72.9580   24.4610    5.9750 C.3   230  ILE230      0.1727
    145  C         71.5860   24.5910    6.6070 C.2   230  ILE230      0.2617
    146  O         71.0510   25.7020    6.7520 O.2   230  ILE230     -0.2715
    147  CB        73.1380   25.4870    4.8260 C.3   230  ILE230      0.0290
    148  CG1       72.1740   25.1830    3.6720 C.3   230  ILE230      0.0022
    149  CG2       74.6200   25.4820    4.3740 C.3   230  ILE230      0.0023
    150  CD1       72.0990   26.2910    2.6140 C.3   230  ILE230      0.0001
    151  N         71.0430   23.4590    7.0330 N.am  231  GLY231     -0.1940
    152  CA        69.7390   23.4510    7.6660 C.3   231  GLY231      0.2014
    153  C         68.6910   22.8230    6.7770 C.2   231  GLY231      0.2638
    154  O         68.9650   22.3820    5.6760 O.2   231  GLY231     -0.2714
    155  N         67.4670   22.8040    7.2870 N.am  232  VAL232     -0.1977
    156  CA        66.3650   22.1280    6.6100 C.3   232  VAL232      0.1596
    157  C         65.1820   23.0690    6.4540 C.2   232  VAL232      0.2287
    158  O         65.1250   24.1390    7.0980 O.2   232  VAL232     -0.2864
    159  CB        65.9160   20.8630    7.3900 C.3   232  VAL232      0.0276
    160  CG1       67.0350   19.8020    7.4020 C.3   232  VAL232      0.0022
    161  CG2       65.4530   21.2210    8.8050 C.3   232  VAL232      0.0022
    162  N         63.9080   20.3200   15.7490 N.3   284  GLU284     -0.1245
    163  CA        64.3500   19.3900   14.7050 C.3   284  GLU284      0.1567
    164  C         65.0940   18.2090   15.3030 C.2   284  GLU284      0.2260
    165  O         66.1720   17.8680   14.8260 O.2   284  GLU284     -0.2867
    166  CB        65.3220   20.0890   13.7250 C.3   284  GLU284      0.0388
    167  CG        64.9410   21.4860   13.2700 C.3   284  GLU284      0.1160
    168  CD        66.0430   22.2010   12.4560 C.2   284  GLU284      0.3649
    169  OE1       65.7040   23.1690   11.7380 O.co2 284  GLU284     -0.2457
    170  OE2       67.2360   21.8200   12.5330 O.co2 284  GLU284     -0.2457
@<TRIPOS>BOND
     1    15    14    2
     2    14    13    1
     3   137   136    1
     4   134   135    2
     5   134   133    1
     6    13    12    1
     7    13    16    1
     8    16    17    1
     9   136   133    1
    10   136   138    1
    11    17    19    1
    12    17    18    1
    13   133   132    1
    14   132   128   am
    15   129   128    2
    16   128   127    1
    17     3     4    2
    18     3     2    1
    19    26    24    1
    20     2     1    1
    21     2     5    1
    22   130   127    1
    23   130   131    1
    24    24    25    1
    25    24    21    1
    26   127   126    1
    27   150   148    1
    28     5     6    1
    29   126   117   am
    30    64    62    1
    31    11     9    1
    32    20    21    1
    33   148   147    1
    34    21    22    1
    35    63    62    1
    36    62    59    1
    37     8     9    2
    38     8     7    1
    39     6     7    1
    40   139   140    1
    41     9    10    1
    42   149   147    1
    43   117   116    1
    44   117   118    2
    45   121   122    1
    46   121   120    1
    47   119   120    1
    48   119   116    1
    49   122   123    2
    50    23    22    2
    51   147   144    1
    52    22    27   am
    53   116   115    1
    54   140   141    1
    55   143   144    1
    56   143   141   am
    57    59    58    1
    58    59    60    1
    59   154   153    2
    60    80    78    1
    61   123   125    1
    62   123   124    1
    63   144   145    1
    64    27    28    1
    65    61    60    2
    66   141   142    2
    67    60    65   am
    68   157   156    1
    69   157   158    2
    70   145   146    2
    71   145   151   am
    72   156   155    1
    73   156   159    1
    74   153   155   am
    75   153   152    1
    76   151   152    1
    77    78    75    1
    78    78    79    1
    79    28    29    1
    80    65    66    1
    81   159   160    1
    82   159   161    1
    83    75    74    1
    84    75    76    1
    85    74    67   am
    86    67    66    1
    87    67    68    2
    88    66    69    1
    89    30    29    2
    90    29    31   am
    91    52    50    1
    92    55    54    1
    93    55    56    1
    94    76    77    2
    95    76    81   am
    96    57    56    2
    97    31    32    1
    98    69    70    1
    99    54    48   am
   100    49    48    2
   101    50    51    1
   102    50    47    1
   103    48    47    1
   104    53    51    1
   105    81    82    1
   106    73    71   ar
   107    72    71   ar
   108    71    70    1
   109    32    33    1
   110    47    46    1
   111    89    87   am
   112    35    33   am
   113    35    36    1
   114    84    83    2
   115    82    83    1
   116    82    85    1
   117    33    34    2
   118   169   168   ar
   119    46    41   am
   120    87    86    1
   121    87    88    2
   122    86    85    1
   123    38    37    2
   124    36    37    1
   125   168   170   ar
   126   168   167    1
   127    37    39   am
   128    41    42    2
   129    41    40    1
   130   167   166    1
   131    39    40    1
   132   166   163    1
   133    40    43    1
   134   103   102    1
   135   111   110    1
   136   111   112    2
   137   110   109    1
   138    45    43    1
   139   163   164    1
   140   163   162    1
   141   113   112    1
   142   165   164    2
   143   112   114    1
   144    43    44    1
   145    90    91    1
   146   108   109    1
   147   108   105    1
   148   102    99    1
   149    98    99    1
   150    98    92   am
   151    91    92    1
   152    91    94    1
   153   104   105    1
   154   104   100   am
   155   105   106    1
   156    99   100    1
   157    95    94    1
   158    95    96    1
   159    92    93    2
   160   100   101    2
   161    96    97    1
   162   106   107    2
