@<TRIPOS>MOLECULE
tmp/2gr9B00.pdb
 81 77 0 0 0
SMALL
GASTEIGER

@<TRIPOS>ATOM
      1  N         -0.4970    4.2850    8.6960 N.3   130  ARG130     -0.1231
      2  CA         0.7240    3.5440    8.4610 C.3   130  ARG130      0.1694
      3  C          1.6900    4.5260    7.8590 C.2   130  ARG130      0.2591
      4  O          2.8960    4.3080    7.8610 O.2   130  ARG130     -0.2718
      5  CB         0.4630    2.3890    7.4810 C.3   130  ARG130      0.0321
      6  CG         1.6590    1.4870    7.1750 C.3   130  ARG130      0.0489
      7  CD         2.4790    1.9790    5.9740 C.3   130  ARG130      0.2205
      8  NE         3.6660    1.1530    5.7280 N.pl3 130  ARG130     -0.0865
      9  CZ         4.5390    1.3530    4.7400 C.cat 130  ARG130      0.5346
     10  NH1        4.3670    2.3560    3.8860 N.pl3 130  ARG130      0.1354
     11  NH2        5.5920    0.5530    4.6080 N.pl3 130  ARG130      0.1354
     12  N          1.1570    5.6290    7.3530 N.am  131  GLU131     -0.1979
     13  CA         2.0050    6.6260    6.7250 C.3   131  GLU131      0.1602
     14  C          2.4600    7.7600    7.6430 C.2   131  GLU131      0.2287
     15  O          2.8220    8.8460    7.1810 O.2   131  GLU131     -0.2864
     16  CB         1.3110    7.1750    5.4770 C.3   131  GLU131      0.0415
     17  CG         1.0030    6.0930    4.4500 C.3   131  GLU131      0.1163
     18  CD         2.2520    5.4040    3.9170 C.2   131  GLU131      0.3649
     19  OE1        2.1120    4.3610    3.2370 O.co2 131  GLU131     -0.2457
     20  OE2        3.3720    5.9050    4.1660 O.co2 131  GLU131     -0.2457
     21  N          9.1930    1.8840   12.2430 N.3   155  SER155     -0.1202
     22  CA         9.3930    1.9700   10.7940 C.3   155  SER155      0.2020
     23  C          8.4970    1.0050   10.0160 C.2   155  SER155      0.2619
     24  O          8.5830    0.9010    8.7930 O.2   155  SER155     -0.2717
     25  CB        10.8660    1.7150   10.4450 C.3   155  SER155      0.2103
     26  OG        11.1940    2.2280    9.1620 O.3   155  SER155     -0.2182
     27  N          7.6340    0.3050   10.7380 N.am  156  SER156     -0.1951
     28  CA         6.7090   -0.6430   10.1390 C.3   156  SER156      0.1924
     29  C          5.3500    0.0260   10.0080 C.2   156  SER156      0.2314
     30  O          4.5600   -0.3030    9.1220 O.2   156  SER156     -0.2863
     31  CB         6.5730   -1.8620   11.0400 C.3   156  SER156      0.2116
     32  OG         6.0390   -1.4740   12.2960 O.3   156  SER156     -0.2180
     33  N          5.1240    3.3910    9.7640 N.3   158  GLY158     -0.1210
     34  CA         5.3910    4.7290    9.2710 C.3   158  GLY158      0.1956
     35  C          6.6950    4.8910    8.5130 C.2   158  GLY158      0.2611
     36  O          6.8350    4.4320    7.3750 O.2   158  GLY158     -0.2717
     37  N          7.6500    5.5570    9.1570 N.am  159  PHE159     -0.1976
     38  CA         8.9600    5.8230    8.5750 C.3   159  PHE159      0.1639
     39  C          9.8750    6.3280    9.6780 C.2   159  PHE159      0.2290
     40  O          9.5200    7.2680   10.3930 O.2   159  PHE159     -0.2864
     41  CB         8.8370    6.8970    7.5010 C.3   159  PHE159      0.0560
     42  CG        10.1520    7.3980    6.9940 C.ar  159  PHE159     -0.0200
     43  CD1       10.7900    6.7660    5.9320 C.ar  159  PHE159     -0.0042
     44  CD2       10.7480    8.5150    7.5670 C.ar  159  PHE159     -0.0042
     45  CE1       12.0070    7.2430    5.4410 C.ar  159  PHE159     -0.0003
     46  CE2       11.9600    8.9990    7.0880 C.ar  159  PHE159     -0.0003
     47  CZ        12.5920    8.3620    6.0200 C.ar  159  PHE159     -0.0000
     48  N         14.2440    6.6840   11.3800 N.3   161  THR161     -0.1218
     49  CA        15.6900    6.9140   11.3040 C.3   161  THR161      0.1862
     50  C         15.9130    7.8580   12.4730 C.2   161  THR161      0.2287
     51  O         14.9550    8.2220   13.1650 O.2   161  THR161     -0.2866
     52  CB        16.1610    7.5780    9.9680 C.3   161  THR161      0.1770
     53  OG1       16.1130    6.6110    8.9080 O.3   161  THR161     -0.2211
     54  CG2       17.6090    8.0860   10.0830 C.3   161  THR161      0.0375
     55  N          4.0090   10.1550   -2.8320 N.3   216  LYS216     -0.1245
     56  CA         4.4230    8.8030   -3.1700 C.3   216  LYS216      0.1561
     57  C          5.3670    8.9170   -4.3410 C.2   216  LYS216      0.2260
     58  O          6.4900    8.4090   -4.3090 O.2   216  LYS216     -0.2867
     59  CB         3.2080    7.9600   -3.5580 C.3   216  LYS216      0.0271
     60  CG         3.4940    6.4620   -3.6680 C.3   216  LYS216      0.0035
     61  CD         2.1950    5.6670   -3.7520 C.3   216  LYS216      0.0206
     62  CE         2.4250    4.1640   -3.7080 C.3   216  LYS216      0.1093
     63  NZ         1.1300    3.4350   -3.8400 N.3   216  LYS216     -0.1314
     64  N          8.5750   10.5010   -3.1400 N.3   219  LEU219     -0.1231
     65  CA         9.3190    9.5810   -2.2860 C.3   219  LEU219      0.1693
     66  C         10.1250    8.5490   -3.0750 C.2   219  LEU219      0.2592
     67  O         11.3580    8.5820   -3.0770 O.2   219  LEU219     -0.2718
     68  CB         8.3580    8.8720   -1.3370 C.3   219  LEU219      0.0284
     69  CG         7.8710    9.7600   -0.1960 C.3   219  LEU219      0.0019
     70  CD1        6.5970    9.1920    0.4010 C.3   219  LEU219      0.0001
     71  CD2        8.9660    9.8760    0.8530 C.3   219  LEU219      0.0001
     72  N          9.4280    7.6450   -3.7540 N.am  220  HIS220     -0.1976
     73  CA        10.0850    6.5980   -4.5280 C.3   220  HIS220      0.1656
     74  C         10.9990    7.1580   -5.6200 C.2   220  HIS220      0.2291
     75  O         12.1280    6.7050   -5.7990 O.2   220  HIS220     -0.2864
     76  CB         9.0330    5.6690   -5.1550 C.3   220  HIS220      0.0771
     77  CG         7.9890    5.1910   -4.1870 C.ar  220  HIS220      0.0820
     78  ND1        8.3000    4.6310   -2.9660 N.ar  220  HIS220     -0.2267
     79  CD2        6.6360    5.1870   -4.2650 C.ar  220  HIS220      0.1154
     80  CE1        7.1850    4.3030   -2.3340 C.ar  220  HIS220      0.1986
     81  NE2        6.1610    4.6300   -3.1010 N.ar  220  HIS220     -0.2212
@<TRIPOS>BOND
     1    75    74    2
     2    74    73    1
     3    76    73    1
     4    76    77    1
     5    73    72    1
     6    57    58    2
     7    57    56    1
     8    79    77   ar
     9    79    81   ar
    10    77    78   ar
    11    63    62    1
    12    72    66   am
    13    61    62    1
    14    61    60    1
    15    60    59    1
    16    59    56    1
    17    56    55    1
    18    64    65    1
    19    81    80   ar
    20    67    66    2
    21    66    65    1
    22    78    80   ar
    23    65    68    1
    24    68    69    1
    25    69    70    1
    26    69    71    1
    27    19    18   ar
    28    10     9    1
    29    18    20   ar
    30    18    17    1
    31    17    16    1
    32    11     9    1
    33     9     8    2
    34    45    43   ar
    35    45    47   ar
    36    16    13    1
    37     8     7    1
    38    43    42   ar
    39     7     6    1
    40    47    46   ar
    41    13    12    1
    42    13    14    1
    43    42    41    1
    44    42    44   ar
    45    46    44   ar
    46     6     5    1
    47    15    14    2
    48    12     3   am
    49    36    35    2
    50     5     2    1
    51    41    38    1
    52     3     4    2
    53     3     2    1
    54     2     1    1
    55    35    37   am
    56    35    34    1
    57    38    37    1
    58    38    39    1
    59    24    23    2
    60    53    52    1
    61    30    29    2
    62    26    25    1
    63    34    33    1
    64    39    40    2
    65    52    54    1
    66    52    49    1
    67    29    28    1
    68    23    27   am
    69    23    22    1
    70    28    27    1
    71    28    31    1
    72    25    22    1
    73    22    21    1
    74    31    32    1
    75    49    48    1
    76    49    50    1
    77    50    51    2
