@<TRIPOS>MOLECULE
tmp/2graA00.pdb
 97 94 0 0 0
SMALL
GASTEIGER

@<TRIPOS>ATOM
      1  N         27.6050   73.9890   -8.7420 N.3   131  ARG131     -0.1231
      2  CA        27.5880   75.1910   -7.9290 C.3   131  ARG131      0.1694
      3  C         26.2500   75.2240   -7.2260 C.2   131  ARG131      0.2591
      4  O         25.8890   76.2190   -6.6130 O.2   131  ARG131     -0.2718
      5  CB        27.9060   76.4190   -8.7830 C.3   131  ARG131      0.0321
      6  CG        28.4950   77.5810   -8.0020 C.3   131  ARG131      0.0489
      7  CD        28.5590   78.8400   -8.8500 C.3   131  ARG131      0.2205
      8  NE        29.1240   79.9670   -8.1140 N.pl3 131  ARG131     -0.0865
      9  CZ        29.2900   81.1830   -8.6230 C.cat 131  ARG131      0.5346
     10  NH1       28.9340   81.4310   -9.8750 N.pl3 131  ARG131      0.1354
     11  NH2       29.8120   82.1470   -7.8790 N.pl3 131  ARG131      0.1354
     12  N         25.4950   74.1390   -7.3180 N.am  132  GLU132     -0.1979
     13  CA        24.1990   74.1200   -6.6630 C.3   132  GLU132      0.1602
     14  C         24.2140   73.3130   -5.3870 C.2   132  GLU132      0.2287
     15  O         23.1710   73.1140   -4.7740 O.2   132  GLU132     -0.2864
     16  CB        23.1190   73.5590   -7.5800 C.3   132  GLU132      0.0415
     17  CG        22.8970   74.3270   -8.8720 C.3   132  GLU132      0.1163
     18  CD        22.7110   75.8190   -8.6610 C.2   132  GLU132      0.3649
     19  OE1       22.0220   76.2050   -7.6920 O.co2 132  GLU132     -0.2457
     20  OE2       23.2420   76.6020   -9.4800 O.co2 132  GLU132     -0.2457
     21  N         29.6110   79.3080   -0.0180 N.3   156  SER156     -0.1202
     22  CA        28.4240   80.0100   -0.4890 C.3   156  SER156      0.2020
     23  C         28.6500   80.5900   -1.8790 C.2   156  SER156      0.2619
     24  O         27.8060   81.3080   -2.4150 O.2   156  SER156     -0.2717
     25  CB        28.0400   81.1330    0.4720 C.3   156  SER156      0.2103
     26  OG        26.7690   81.6670    0.1400 O.3   156  SER156     -0.2182
     27  N         29.7790   80.0460   -2.3170 N.am  157  SER157     -0.1951
     28  CA        30.2070   80.3610   -3.6630 C.3   157  SER157      0.1924
     29  C         29.8520   79.1970   -4.5650 C.2   157  SER157      0.2314
     30  O         29.4170   79.3880   -5.6900 O.2   157  SER157     -0.2863
     31  CB        31.7160   80.5760   -3.7050 C.3   157  SER157      0.2116
     32  OG        32.3900   79.3580   -3.4560 O.3   157  SER157     -0.2180
     33  N         27.4540   77.1210   -4.2260 N.3   159  GLY159     -0.1210
     34  CA        26.1780   76.6350   -3.7290 C.3   159  GLY159      0.1956
     35  C         25.5210   77.6410   -2.8110 C.2   159  GLY159      0.2611
     36  O         25.8430   78.8170   -2.8540 O.2   159  GLY159     -0.2717
     37  N         24.4150   76.8460   -2.0540 N.am  160  PHE160     -0.1976
     38  CA        23.7380   77.5330   -0.9600 C.3   160  PHE160      0.1639
     39  C         24.5110   77.2970    0.3310 C.2   160  PHE160      0.2290
     40  O         25.1700   76.2640    0.4870 O.2   160  PHE160     -0.2864
     41  CB        22.3230   76.9920   -0.8040 C.3   160  PHE160      0.0560
     42  CG        21.6450   77.4080    0.4750 C.ar  160  PHE160     -0.0200
     43  CD1       21.2100   78.7110    0.6580 C.ar  160  PHE160     -0.0042
     44  CD2       21.3870   76.4690    1.4760 C.ar  160  PHE160     -0.0042
     45  CE1       20.5140   79.0710    1.8150 C.ar  160  PHE160     -0.0003
     46  CE2       20.6930   76.8190    2.6370 C.ar  160  PHE160     -0.0003
     47  CZ        20.2540   78.1180    2.8040 C.ar  160  PHE160     -0.0000
     48  N         13.6210   75.7420   -9.3160 N.3   217  LYS217     -0.1245
     49  CA        13.6640   77.1940   -9.3320 C.3   217  LYS217      0.1561
     50  C         12.3520   77.8280   -8.9160 C.2   217  LYS217      0.2260
     51  O         12.2340   78.3960   -7.8320 O.2   217  LYS217     -0.2867
     52  CB        14.0350   77.7030  -10.7250 C.3   217  LYS217      0.0271
     53  CG        15.2640   78.5950  -10.7530 C.3   217  LYS217      0.0035
     54  CD        15.4750   79.2020  -12.1290 C.3   217  LYS217      0.0206
     55  CE        16.7040   80.0940  -12.1570 C.3   217  LYS217      0.1093
     56  NZ        16.9230   80.6960  -13.5000 N.3   217  LYS217     -0.1314
     57  N          9.8730   77.1130   -7.0630 N.3   219  LEU219     -0.1231
     58  CA         9.5990   77.0540   -5.6370 C.3   219  LEU219      0.1693
     59  C         10.5120   77.9730   -4.8420 C.2   219  LEU219      0.2592
     60  O         10.0840   78.6220   -3.8870 O.2   219  LEU219     -0.2718
     61  CB         9.7350   75.6200   -5.1240 C.3   219  LEU219      0.0284
     62  CG         9.5010   75.4150   -3.6210 C.3   219  LEU219      0.0019
     63  CD1        8.1020   75.8220   -3.2680 C.3   219  LEU219      0.0001
     64  CD2        9.7150   73.9650   -3.2370 C.3   219  LEU219      0.0001
     65  N         11.7700   78.0380   -5.2440 N.am  220  LEU220     -0.1966
     66  CA        12.7290   78.8650   -4.5340 C.3   220  LEU220      0.1728
     67  C         12.4910   80.3480   -4.7550 C.2   220  LEU220      0.2616
     68  O         12.5850   81.1550   -3.8230 O.2   220  LEU220     -0.2715
     69  CB        14.1450   78.4820   -4.9660 C.3   220  LEU220      0.0311
     70  CG        14.4050   77.0010   -4.6870 C.3   220  LEU220      0.0022
     71  CD1       15.6130   76.4690   -5.4570 C.3   220  LEU220      0.0001
     72  CD2       14.5660   76.8320   -3.1920 C.3   220  LEU220      0.0001
     73  N         12.7520   80.6260   -6.1130 N.am  221  HIS221     -0.1959
     74  CA        12.5170   82.0150   -6.4560 C.3   221  HIS221      0.1787
     75  C         11.0620   82.3990   -6.2410 C.2   221  HIS221      0.2621
     76  O         10.4280   82.9720   -7.1220 O.2   221  HIS221     -0.2715
     77  CB        12.9410   82.2510   -7.9040 C.3   221  HIS221      0.0785
     78  CG        14.3900   81.9650   -8.1480 C.ar  221  HIS221      0.0821
     79  ND1       15.1540   82.7050   -9.0260 N.ar  221  HIS221     -0.2267
     80  CD2       15.2080   81.0050   -7.6560 C.ar  221  HIS221      0.1154
     81  CE1       16.3780   82.2100   -9.0680 C.ar  221  HIS221      0.1986
     82  NE2       16.4370   81.1790   -8.2460 N.ar  221  HIS221     -0.2212
     83  N          9.9650   82.1610   -4.9380 N.am  222  SER222     -0.1936
     84  CA         8.5810   82.4730   -4.5960 C.3   222  SER222      0.2055
     85  C          8.2570   81.8050   -3.2830 C.2   222  SER222      0.2642
     86  O          8.9590   80.8940   -2.8680 O.2   222  SER222     -0.2714
     87  CB         7.6250   81.9000   -5.6350 C.3   222  SER222      0.2130
     88  OG         7.2860   80.5620   -5.2970 O.3   222  SER222     -0.2179
     89  N          7.1960   82.2500   -2.6260 N.am  223  GLU223     -0.1976
     90  CA         6.7980   81.5950   -1.3950 C.3   223  GLU223      0.1602
     91  C          5.8720   80.4990   -1.8800 C.2   223  GLU223      0.2287
     92  O          6.1770   79.3080   -1.7840 O.2   223  GLU223     -0.2864
     93  CB         6.0320   82.5420   -0.4690 C.3   223  GLU223      0.0415
     94  CG         4.9070   81.8570    0.3340 C.3   223  GLU223      0.1163
     95  CD         5.3690   80.6310    1.1200 C.2   223  GLU223      0.3649
     96  OE1        6.2880   80.7670    1.9530 O.co2 223  GLU223     -0.2457
     97  OE2        4.8020   79.5340    0.9150 O.co2 223  GLU223     -0.2457
@<TRIPOS>BOND
     1    56    55    1
     2    55    54    1
     3    54    53    1
     4    53    52    1
     5    52    49    1
     6    10     9    1
     7    20    18   ar
     8    49    48    1
     9    49    50    1
    10    81    79   ar
    11    81    82   ar
    12    79    78   ar
    13    50    51    2
    14    17    18    1
    15    17    16    1
    16     7     8    1
    17     7     6    1
    18     5     6    1
    19     5     2    1
    20     1     2    1
    21    18    19   ar
    22     9     8    2
    23     9    11    1
    24    82    80   ar
    25    78    77    1
    26    78    80   ar
    27     2     3    1
    28    77    74    1
    29    16    13    1
    30    12     3   am
    31    12    13    1
    32     3     4    2
    33    76    75    2
    34    57    58    1
    35    13    14    1
    36    74    75    1
    37    74    73    1
    38    75    83   am
    39    73    67   am
    40    30    29    2
    41    58    61    1
    42    58    59    1
    43    87    88    1
    44    87    84    1
    45    71    70    1
    46    14    15    2
    47    65    59   am
    48    65    66    1
    49    61    62    1
    50    69    70    1
    51    69    66    1
    52    83    84    1
    53    59    60    2
    54    67    66    1
    55    67    68    2
    56    70    72    1
    57    84    85    1
    58    29    28    1
    59    33    34    1
    60    34    35    1
    61    31    28    1
    62    31    32    1
    63    28    27    1
    64    62    63    1
    65    62    64    1
    66    85    86    2
    67    85    89   am
    68    36    35    2
    69    35    37   am
    70    89    90    1
    71    24    23    2
    72    27    23   am
    73    37    38    1
    74    91    92    2
    75    91    90    1
    76    23    22    1
    77    90    93    1
    78    38    41    1
    79    38    39    1
    80    41    42    1
    81    22    21    1
    82    22    25    1
    83    93    94    1
    84    26    25    1
    85    39    40    2
    86    94    95    1
    87    42    43   ar
    88    42    44   ar
    89    43    45   ar
    90    97    95   ar
    91    95    96   ar
    92    44    46   ar
    93    45    47   ar
    94    46    47   ar
