@<TRIPOS>MOLECULE
tmp/2graD00.pdb
 97 94 0 0 0
SMALL
GASTEIGER

@<TRIPOS>ATOM
      1  N        -30.6200   37.8300   27.5100 N.3   131  ARG131     -0.1231
      2  CA       -30.5170   36.4860   28.0640 C.3   131  ARG131      0.1694
      3  C        -29.7990   35.5390   27.1280 C.2   131  ARG131      0.2591
      4  O        -30.1110   34.3490   27.0670 O.2   131  ARG131     -0.2718
      5  CB       -31.9090   35.9600   28.4050 C.3   131  ARG131      0.0321
      6  CG       -32.6310   36.8840   29.3670 C.3   131  ARG131      0.0489
      7  CD       -33.4410   36.1180   30.3730 C.3   131  ARG131      0.2205
      8  NE       -34.7550   35.7540   29.8610 N.pl3 131  ARG131     -0.0865
      9  CZ       -35.4780   34.7460   30.3350 C.cat 131  ARG131      0.5346
     10  NH1      -35.0040   33.9980   31.3260 N.pl3 131  ARG131      0.1354
     11  NH2      -36.6810   34.4960   29.8300 N.pl3 131  ARG131      0.1354
     12  N        -28.8260   36.0890   26.4060 N.am  132  GLU132     -0.1979
     13  CA       -28.0270   35.3260   25.4620 C.3   132  GLU132      0.1602
     14  C        -26.5420   35.5170   25.6470 C.2   132  GLU132      0.2287
     15  O        -25.7610   35.1670   24.7690 O.2   132  GLU132     -0.2864
     16  CB       -28.3800   35.6980   24.0290 C.3   132  GLU132      0.0415
     17  CG       -29.6200   35.0120   23.5480 C.3   132  GLU132      0.1163
     18  CD       -29.6710   33.5770   24.0080 C.2   132  GLU132      0.3649
     19  OE1      -28.6920   32.8360   23.7620 O.co2 132  GLU132     -0.2457
     20  OE2      -30.6900   33.2040   24.6250 O.co2 132  GLU132     -0.2457
     21  N        -26.6460   31.0790   34.2850 N.3   156  SER156     -0.1202
     22  CA       -27.1760   30.2000   33.2730 C.3   156  SER156      0.2020
     23  C        -28.5770   30.6850   32.9480 C.2   156  SER156      0.2619
     24  O        -29.1560   30.2690   31.9530 O.2   156  SER156     -0.2717
     25  CB       -27.2180   28.7620   33.7730 C.3   156  SER156      0.2103
     26  OG       -25.9120   28.2190   33.8250 O.3   156  SER156     -0.2182
     27  N        -29.1180   31.5770   33.7740 N.am  157  SER157     -0.1951
     28  CA       -30.4700   32.0860   33.5420 C.3   157  SER157      0.1924
     29  C        -30.5050   33.2150   32.5270 C.2   157  SER157      0.2314
     30  O        -31.5760   33.7170   32.1770 O.2   157  SER157     -0.2863
     31  CB       -31.1000   32.5700   34.8460 C.3   157  SER157      0.2116
     32  OG       -30.4280   33.7120   35.3350 O.3   157  SER157     -0.2180
     33  N        -28.3740   33.2260   29.3760 N.3   159  GLY159     -0.1210
     34  CA       -27.4050   32.7520   28.4160 C.3   159  GLY159      0.1956
     35  C        -26.5700   31.6070   28.9540 C.2   159  GLY159      0.2611
     36  O        -26.6870   31.2050   30.1140 O.2   159  GLY159     -0.2717
     37  N        -25.7330   31.0730   28.0780 N.am  160  PHE160     -0.1976
     38  CA       -24.8310   29.9800   28.3960 C.3   160  PHE160      0.1639
     39  C        -24.0900   30.2930   29.6970 C.2   160  PHE160      0.2290
     40  O        -24.0750   31.4410   30.1390 O.2   160  PHE160     -0.2864
     41  CB       -23.8540   29.8260   27.2270 C.3   160  PHE160      0.0560
     42  CG       -22.8260   28.7560   27.4220 C.ar  160  PHE160     -0.0200
     43  CD1      -23.2020   27.4740   27.7880 C.ar  160  PHE160     -0.0042
     44  CD2      -21.4770   29.0340   27.2240 C.ar  160  PHE160     -0.0042
     45  CE1      -22.2460   26.4870   27.9540 C.ar  160  PHE160     -0.0003
     46  CE2      -20.5190   28.0640   27.3880 C.ar  160  PHE160     -0.0003
     47  CZ       -20.8980   26.7860   27.7530 C.ar  160  PHE160     -0.0000
     48  N        -27.0880   29.6130   15.9440 N.3   217  LYS217     -0.1245
     49  CA       -28.0190   28.6430   16.5020 C.3   217  LYS217      0.1561
     50  C        -27.8770   27.2920   15.7960 C.2   217  LYS217      0.2260
     51  O        -28.0060   26.2370   16.4140 O.2   217  LYS217     -0.2867
     52  CB       -29.4490   29.1820   16.3720 C.3   217  LYS217      0.0271
     53  CG       -30.5490   28.3120   16.9760 C.3   217  LYS217      0.0035
     54  CD       -31.7670   29.1770   17.3440 C.3   217  LYS217      0.0206
     55  CE       -33.0610   28.3800   17.5110 C.3   217  LYS217      0.1093
     56  NZ       -33.0200   27.3610   18.5980 N.3   217  LYS217     -0.1314
     57  N        -25.0590   25.8090   14.2660 N.3   219  LEU219     -0.1231
     58  CA       -23.8750   25.0510   14.6750 C.3   219  LEU219      0.1693
     59  C        -23.9400   24.6470   16.1470 C.2   219  LEU219      0.2592
     60  O        -23.3350   23.6580   16.5620 O.2   219  LEU219     -0.2718
     61  CB       -22.6000   25.8690   14.4430 C.3   219  LEU219      0.0284
     62  CG       -21.2570   25.2340   14.8410 C.3   219  LEU219      0.0019
     63  CD1      -20.9140   24.0980   13.8880 C.3   219  LEU219      0.0001
     64  CD2      -20.1580   26.2830   14.8030 C.3   219  LEU219      0.0001
     65  N        -24.6760   25.4130   16.9360 N.am  220  LEU220     -0.1966
     66  CA       -24.7920   25.1250   18.3520 C.3   220  LEU220      0.1728
     67  C        -25.5860   23.8470   18.5720 C.2   220  LEU220      0.2616
     68  O        -25.1720   22.9810   19.3440 O.2   220  LEU220     -0.2715
     69  CB       -25.4300   26.3240   19.0550 C.3   220  LEU220      0.0311
     70  CG       -24.5210   27.5610   18.9210 C.3   220  LEU220      0.0022
     71  CD1      -25.2580   28.8820   19.2220 C.3   220  LEU220      0.0001
     72  CD2      -23.3210   27.3560   19.8370 C.3   220  LEU220      0.0001
     73  N        -26.7130   23.7220   17.8790 N.am  221  HIS221     -0.1959
     74  CA       -27.5390   22.5280   17.9910 C.3   221  HIS221      0.1787
     75  C        -27.0410   21.4820   17.0080 C.2   221  HIS221      0.2621
     76  O        -27.8450   20.8330   16.3430 O.2   221  HIS221     -0.2715
     77  CB       -28.9990   22.8420   17.6720 C.3   221  HIS221      0.0785
     78  CG       -29.6000   23.8790   18.5640 C.ar  221  HIS221      0.0821
     79  ND1      -29.0580   25.1380   18.7110 N.ar  221  HIS221     -0.2267
     80  CD2      -30.7080   23.8530   19.3400 C.ar  221  HIS221      0.1154
     81  CE1      -29.8070   25.8440   19.5400 C.ar  221  HIS221      0.1986
     82  NE2      -30.8150   25.0880   19.9360 N.ar  221  HIS221     -0.2212
     83  N        -25.7230   21.3220   16.9090 N.am  222  SER222     -0.1936
     84  CA       -25.1600   20.3400   15.9920 C.3   222  SER222      0.2055
     85  C        -23.6480   20.2500   16.0210 C.2   222  SER222      0.2642
     86  O        -22.9600   21.1040   15.4660 O.2   222  SER222     -0.2714
     87  CB       -25.5870   20.6470   14.5560 C.3   222  SER222      0.2130
     88  OG       -25.0080   21.8570   14.0990 O.3   222  SER222     -0.2179
     89  N        -23.1280   19.2080   16.6530 N.am  223  GLU223     -0.1976
     90  CA       -21.6890   19.0000   16.7020 C.3   223  GLU223      0.1602
     91  C        -21.2000   18.6900   15.2810 C.2   223  GLU223      0.2287
     92  O        -20.3270   17.8450   15.0830 O.2   223  GLU223     -0.2864
     93  CB       -21.3790   17.8260   17.6190 C.3   223  GLU223      0.0415
     94  CG       -22.2900   16.6490   17.3600 C.3   223  GLU223      0.1163
     95  CD       -21.8070   15.3830   18.0140 C.2   223  GLU223      0.3649
     96  OE1      -20.7190   14.9020   17.6340 O.co2 223  GLU223     -0.2457
     97  OE2      -22.5140   14.8710   18.9060 O.co2 223  GLU223     -0.2457
@<TRIPOS>BOND
     1    63    62    1
     2    88    87    1
     3    57    58    1
     4    61    58    1
     5    61    62    1
     6    87    84    1
     7    58    59    1
     8    64    62    1
     9    92    91    2
    10    91    90    1
    11    86    85    2
    12    50    51    2
    13    50    49    1
    14    48    49    1
    15    84    85    1
    16    84    83    1
    17    85    89   am
    18    59    60    2
    19    59    65   am
    20    76    75    2
    21    52    49    1
    22    52    53    1
    23    89    90    1
    24    90    93    1
    25    83    75   am
    26    65    66    1
    27    53    54    1
    28    75    74    1
    29    54    55    1
    30    94    93    1
    31    94    95    1
    32    55    56    1
    33    96    95   ar
    34    77    74    1
    35    77    78    1
    36    73    74    1
    37    73    67   am
    38    95    97   ar
    39    66    67    1
    40    66    69    1
    41    78    79   ar
    42    78    80   ar
    43    67    68    2
    44    79    81   ar
    45    70    69    1
    46    70    71    1
    47    70    72    1
    48    80    82   ar
    49    81    82   ar
    50    17    18    1
    51    17    16    1
    52    19    18   ar
    53    18    20   ar
    54    16    13    1
    55    15    14    2
    56    13    14    1
    57    13    12    1
    58    12     3   am
    59     4     3    2
    60     3     2    1
    61    44    46   ar
    62    44    42   ar
    63    41    42    1
    64    41    38    1
    65    46    47   ar
    66    42    43   ar
    67     1     2    1
    68    47    45   ar
    69    43    45   ar
    70     2     5    1
    71    37    38    1
    72    37    35   am
    73    38    39    1
    74     5     6    1
    75    34    35    1
    76    34    33    1
    77    35    36    2
    78     6     7    1
    79    39    40    2
    80    11     9    1
    81     8     9    2
    82     8     7    1
    83     9    10    1
    84    24    23    2
    85    30    29    2
    86    29    28    1
    87    23    22    1
    88    23    27   am
    89    22    25    1
    90    22    21    1
    91    28    27    1
    92    28    31    1
    93    25    26    1
    94    31    32    1
