@<TRIPOS>MOLECULE
tmp/2graB00.pdb
 111 108 0 0 0
SMALL
GASTEIGER

@<TRIPOS>ATOM
      1  N         -0.4190    4.2480    8.5310 N.3   130  ARG130     -0.1231
      2  CA         0.7870    3.4730    8.2980 C.3   130  ARG130      0.1694
      3  C          1.7300    4.4150    7.5940 C.2   130  ARG130      0.2591
      4  O          2.8190    4.0320    7.1640 O.2   130  ARG130     -0.2718
      5  CB         0.4780    2.2930    7.3870 C.3   130  ARG130      0.0321
      6  CG         1.6150    1.3210    7.2200 C.3   130  ARG130      0.0489
      7  CD         1.2220    0.2560    6.2290 C.3   130  ARG130      0.2205
      8  NE         2.2360   -0.7800    6.0920 N.pl3 130  ARG130     -0.0865
      9  CZ         2.1770   -1.7520    5.1900 C.cat 130  ARG130      0.5346
     10  NH1        1.1520   -1.8110    4.3510 N.pl3 130  ARG130      0.1354
     11  NH2        3.1370   -2.6640    5.1250 N.pl3 130  ARG130      0.1354
     12  N          1.2900    5.6630    7.4950 N.am  131  GLU131     -0.1979
     13  CA         2.0500    6.6970    6.8180 C.3   131  GLU131      0.1602
     14  C          2.6260    7.7400    7.7600 C.2   131  GLU131      0.2287
     15  O          3.3110    8.6630    7.3330 O.2   131  GLU131     -0.2864
     16  CB         1.1580    7.3630    5.7720 C.3   131  GLU131      0.0415
     17  CG         0.4340    6.3600    4.8840 C.3   131  GLU131      0.1163
     18  CD         1.3760    5.3590    4.2300 C.2   131  GLU131      0.3649
     19  OE1        0.8890    4.4010    3.5890 O.co2 131  GLU131     -0.2457
     20  OE2        2.6060    5.5310    4.3560 O.co2 131  GLU131     -0.2457
     21  N          9.1900    1.8630   12.5420 N.3   155  SER155     -0.1202
     22  CA         9.4670    1.8220   11.1110 C.3   155  SER155      0.2020
     23  C          8.5160    0.8240   10.4600 C.2   155  SER155      0.2619
     24  O          8.6100    0.5230    9.2690 O.2   155  SER155     -0.2717
     25  CB        10.9110    1.3980   10.8680 C.3   155  SER155      0.2103
     26  OG        11.2130    1.3880    9.4860 O.3   155  SER155     -0.2182
     27  N          7.5970    0.3210   11.2720 N.am  156  SER156     -0.1937
     28  CA         6.6030   -0.6450   10.8410 C.3   156  SER156      0.2055
     29  C          5.2420    0.0310   10.7430 C.2   156  SER156      0.2643
     30  O          4.2850   -0.5580   10.2480 O.2   156  SER156     -0.2714
     31  CB         6.5150   -1.7810   11.8570 C.3   156  SER156      0.2130
     32  OG         6.0420   -1.3010   13.1100 O.3   156  SER156     -0.2179
     33  N          5.1600    1.2680   11.2200 N.am  157  VAL157     -0.1963
     34  CA         3.9040    2.0090   11.1960 C.3   157  VAL157      0.1727
     35  C          4.1270    3.4390   10.7320 C.2   157  VAL157      0.2617
     36  O          3.5920    4.3740   11.3210 O.2   157  VAL157     -0.2715
     37  CB         3.2770    2.0740   12.5950 C.3   157  VAL157      0.0290
     38  CG1        1.7780    2.2970   12.4810 C.3   157  VAL157      0.0023
     39  CG2        3.5990    0.8140   13.3640 C.3   157  VAL157      0.0023
     40  N          4.9230    3.6130    9.6860 N.am  158  GLY158     -0.1940
     41  CA         5.1850    4.9520    9.1980 C.3   158  GLY158      0.2014
     42  C          6.5660    5.1230    8.5950 C.2   158  GLY158      0.2638
     43  O          6.7110    5.0870    7.3770 O.2   158  GLY158     -0.2714
     44  N          7.5770    5.3200    9.4370 N.am  159  PHE159     -0.1973
     45  CA         8.9510    5.4970    8.9690 C.3   159  PHE159      0.1639
     46  C          9.7930    6.1710   10.0350 C.2   159  PHE159      0.2290
     47  O          9.3240    7.0750   10.7360 O.2   159  PHE159     -0.2864
     48  CB         8.9970    6.3470    7.7040 C.3   159  PHE159      0.0560
     49  CG        10.3700    6.7530    7.3070 C.ar  159  PHE159     -0.0200
     50  CD1       11.2430    5.8210    6.7660 C.ar  159  PHE159     -0.0042
     51  CD2       10.8090    8.0590    7.4980 C.ar  159  PHE159     -0.0042
     52  CE1       12.5390    6.1760    6.4200 C.ar  159  PHE159     -0.0003
     53  CE2       12.1050    8.4310    7.1560 C.ar  159  PHE159     -0.0003
     54  CZ        12.9750    7.4860    6.6150 C.ar  159  PHE159     -0.0000
     55  N         14.1670    6.9750   11.6680 N.3   161  THR161     -0.1218
     56  CA        15.5850    7.2780   11.5110 C.3   161  THR161      0.1862
     57  C         15.9160    8.1000   12.7490 C.2   161  THR161      0.2287
     58  O         15.0040    8.6080   13.4060 O.2   161  THR161     -0.2866
     59  CB        15.8570    8.1140   10.2300 C.3   161  THR161      0.1770
     60  OG1       16.1430    7.2330    9.1360 O.3   161  THR161     -0.2211
     61  CG2       17.0270    9.0630   10.4290 C.3   161  THR161      0.0375
     62  N          3.9990   10.1200   -2.7090 N.3   216  LYS216     -0.1245
     63  CA         4.4960    8.7870   -2.9980 C.3   216  LYS216      0.1561
     64  C          5.4580    8.9040   -4.1600 C.2   216  LYS216      0.2260
     65  O          6.6070    8.4650   -4.0790 O.2   216  LYS216     -0.2867
     66  CB         3.3290    7.8710   -3.3670 C.3   216  LYS216      0.0271
     67  CG         3.7260    6.4470   -3.7070 C.3   216  LYS216      0.0035
     68  CD         2.5050    5.5320   -3.7460 C.3   216  LYS216      0.0206
     69  CE         2.8830    4.0570   -3.9180 C.3   216  LYS216      0.1093
     70  NZ         1.6880    3.1680   -4.0960 N.3   216  LYS216     -0.1314
     71  N          7.1040   11.4960   -5.4040 N.3   218  LEU218     -0.1231
     72  CA         8.3380   12.1450   -5.0020 C.3   218  LEU218      0.1693
     73  C          9.1930   11.2080   -4.1540 C.2   218  LEU218      0.2592
     74  O         10.4040   11.0910   -4.3580 O.2   218  LEU218     -0.2718
     75  CB         8.0420   13.4100   -4.2070 C.3   218  LEU218      0.0284
     76  CG         9.3190   14.0750   -3.6900 C.3   218  LEU218      0.0019
     77  CD1       10.2170   14.4710   -4.8610 C.3   218  LEU218      0.0001
     78  CD2        8.9530   15.2820   -2.8480 C.3   218  LEU218      0.0001
     79  N          8.5510   10.5390   -3.2050 N.am  219  LEU219     -0.1966
     80  CA         9.2300    9.6180   -2.3050 C.3   219  LEU219      0.1728
     81  C         10.0650    8.5510   -2.9860 C.2   219  LEU219      0.2616
     82  O         11.2880    8.5250   -2.8400 O.2   219  LEU219     -0.2715
     83  CB         8.1970    8.9720   -1.4140 C.3   219  LEU219      0.0311
     84  CG         7.6490   10.0880   -0.5340 C.3   219  LEU219      0.0022
     85  CD1        6.2800    9.7210    0.0480 C.3   219  LEU219      0.0001
     86  CD2        8.6920   10.3840    0.5430 C.3   219  LEU219      0.0001
     87  N          9.4060    7.6610   -3.7150 N.am  220  HIS220     -0.1959
     88  CA        10.1190    6.6090   -4.4180 C.3   220  HIS220      0.1787
     89  C         11.0900    7.2390   -5.3970 C.2   220  HIS220      0.2621
     90  O         12.3070    7.1050   -5.2570 O.2   220  HIS220     -0.2715
     91  CB         9.1350    5.7250   -5.1680 C.3   220  HIS220      0.0785
     92  CG         8.0480    5.1900   -4.2980 C.ar  220  HIS220      0.0821
     93  ND1        8.2940    4.6830   -3.0410 N.ar  220  HIS220     -0.2267
     94  CD2        6.7150    5.0770   -4.4980 C.ar  220  HIS220      0.1154
     95  CE1        7.1580    4.2790   -2.5040 C.ar  220  HIS220      0.1986
     96  NE2        6.1840    4.5060   -3.3680 N.ar  220  HIS220     -0.2212
     97  N         10.5300    7.9330   -6.3810 N.am  221  SER221     -0.1936
     98  CA        11.2970    8.6130   -7.4130 C.3   221  SER221      0.2055
     99  C         12.5730    9.2220   -6.8450 C.2   221  SER221      0.2642
    100  O         13.5690    8.5240   -6.6520 O.2   221  SER221     -0.2714
    101  CB        10.4360    9.7070   -8.0380 C.3   221  SER221      0.2130
    102  OG         9.1660    9.2000   -8.4050 O.3   221  SER221     -0.2179
    103  N         12.5210   10.5270   -6.5850 N.am  222  GLU222     -0.1976
    104  CA        13.6300   11.3030   -6.0280 C.3   222  GLU222      0.1602
    105  C         13.8530   12.5680   -6.8430 C.2   222  GLU222      0.2287
    106  O         13.7810   13.6780   -6.3060 O.2   222  GLU222     -0.2864
    107  CB        14.9360   10.5020   -6.0130 C.3   222  GLU222      0.0415
    108  CG        15.5680   10.3670   -7.3820 C.3   222  GLU222      0.1163
    109  CD        16.7190    9.4070   -7.4020 C.2   222  GLU222      0.3649
    110  OE1       17.6280    9.5650   -6.5630 O.co2 222  GLU222     -0.2457
    111  OE2       16.7160    8.4990   -8.2600 O.co2 222  GLU222     -0.2457
@<TRIPOS>BOND
     1   102   101    1
     2   111   109   ar
     3   101    98    1
     4    98    99    1
     5    98    97    1
     6   109   108    1
     7   109   110   ar
     8   108   107    1
     9    99   100    2
    10    99   103   am
    11   105   106    2
    12   105   104    1
    13   103   104    1
    14    97    89   am
    15   104   107    1
    16    71    72    1
    17    89    90    2
    18    89    88    1
    19    91    88    1
    20    91    92    1
    21    72    75    1
    22    72    73    1
    23    77    76    1
    24    94    92   ar
    25    94    96   ar
    26    88    87    1
    27    74    73    2
    28    92    93   ar
    29    75    76    1
    30    64    65    2
    31    64    63    1
    32    73    79   am
    33    70    69    1
    34    69    68    1
    35    68    67    1
    36    87    81   am
    37    67    66    1
    38    76    78    1
    39    96    95   ar
    40    66    63    1
    41    79    80    1
    42    93    95   ar
    43    63    62    1
    44    81    82    2
    45    81    80    1
    46    80    83    1
    47    83    84    1
    48    84    85    1
    49    84    86    1
    50    19    18   ar
    51    18    20   ar
    52    18    17    1
    53    10     9    1
    54    17    16    1
    55    11     9    1
    56     9     8    2
    57    16    13    1
    58     8     7    1
    59     7     6    1
    60    52    54   ar
    61    52    50   ar
    62    54    53   ar
    63    50    49   ar
    64    13    12    1
    65    13    14    1
    66    53    51   ar
    67     4     3    2
    68     6     5    1
    69    49    51   ar
    70    49    48    1
    71    15    14    2
    72    43    42    2
    73     5     2    1
    74    12     3   am
    75     3     2    1
    76    48    45    1
    77     2     1    1
    78    42    41    1
    79    42    44   am
    80    45    44    1
    81    45    46    1
    82    60    59    1
    83    41    40    1
    84    24    23    2
    85    26    25    1
    86    40    35   am
    87    46    47    2
    88    59    61    1
    89    59    56    1
    90    30    29    2
    91    23    22    1
    92    23    27   am
    93    35    34    1
    94    35    36    2
    95    29    28    1
    96    29    33   am
    97    28    27    1
    98    28    31    1
    99    25    22    1
   100    22    21    1
   101    34    33    1
   102    34    37    1
   103    56    55    1
   104    56    57    1
   105    31    32    1
   106    38    37    1
   107    37    39    1
   108    57    58    2
