@<TRIPOS>MOLECULE
tmp/2grjB02.pdb
 216 204 0 0 0
SMALL
GASTEIGER

@<TRIPOS>ATOM
      1  N         52.5030    5.5490  -56.6590 N.3    11  ILE11      -0.1245
      2  CA        52.4890    4.0900  -56.7030 C.3    11  ILE11       0.1561
      3  C         53.9230    3.4510  -56.7690 C.2    11  ILE11       0.2260
      4  O         54.8040    3.8850  -57.5160 O.2    11  ILE11      -0.2867
      5  CB        51.6240    3.6330  -57.9070 C.3    11  ILE11       0.0252
      6  CG1       51.3130    2.1270  -57.8270 C.3    11  ILE11       0.0019
      7  CG2       52.3030    3.9790  -59.2100 C.3    11  ILE11       0.0019
      8  CD1       50.0950    1.7000  -58.7100 C.3    11  ILE11       0.0001
      9  N         54.9720    3.3090  -49.7240 N.3    15  LYS15      -0.1245
     10  CA        53.9980    3.6620  -48.6540 C.3    15  LYS15       0.1561
     11  C         53.6220    2.4480  -47.8000 C.2    15  LYS15       0.2260
     12  O         53.6700    2.5160  -46.5800 O.2    15  LYS15      -0.2867
     13  CB        52.7290    4.3020  -49.2360 C.3    15  LYS15       0.0271
     14  CG        53.0230    5.5300  -50.0580 C.3    15  LYS15       0.0035
     15  CD        51.8260    6.0800  -50.7980 C.3    15  LYS15       0.0206
     16  CE        51.1430    5.0930  -51.7420 C.3    15  LYS15       0.1093
     17  NZ        51.9080    4.6160  -52.8870 N.3    15  LYS15      -0.1314
     18  N         43.6760    3.4330  -47.1310 N.3    33  VAL33      -0.1231
     19  CA        42.6070    4.1240  -47.8560 C.3    33  VAL33       0.1692
     20  C         42.1880    3.3690  -49.1400 C.2    33  VAL33       0.2592
     21  O         41.0460    3.4150  -49.5620 O.2    33  VAL33      -0.2718
     22  CB        43.0030    5.5460  -48.1320 C.3    33  VAL33       0.0266
     23  CG1       41.9440    6.2640  -48.9580 C.3    33  VAL33       0.0020
     24  CG2       43.2620    6.2820  -46.7900 C.3    33  VAL33       0.0020
     25  N         43.0880    2.6150  -49.7350 N.am   34  ASP34      -0.1974
     26  CA        42.7090    1.7530  -50.8560 C.3    34  ASP34       0.1709
     27  C         41.6400    0.7480  -50.4660 C.2    34  ASP34       0.2293
     28  O         40.6420    0.5790  -51.1910 O.2    34  ASP34      -0.2864
     29  CB        43.9140    0.9200  -51.3580 C.3    34  ASP34       0.1436
     30  CG        44.9690    1.7420  -52.1150 C.2    34  ASP34       0.3671
     31  OD1       44.6500    2.8460  -52.6250 O.co2  34  ASP34      -0.2456
     32  OD2       46.1210    1.2450  -52.2250 O.co2  34  ASP34      -0.2456
     33  N         38.4110    2.2300  -50.0260 N.3    37  GLY37      -0.1210
     34  CA        37.8800    2.3850  -51.3900 C.3    37  GLY37       0.1956
     35  C         37.1500    1.1440  -51.8680 C.2    37  GLY37       0.2611
     36  O         36.0830    1.2190  -52.4410 O.2    37  GLY37      -0.2717
     37  N         37.7180   -0.0170  -51.6110 N.am   38  HIS38      -0.1975
     38  CA        37.0920   -1.2700  -52.0560 C.3    38  HIS38       0.1656
     39  C         35.7560   -1.5430  -51.3620 C.2    38  HIS38       0.2291
     40  O         34.8440   -2.1380  -51.9560 O.2    38  HIS38      -0.2864
     41  CB        38.0350   -2.4680  -51.8200 C.3    38  HIS38       0.0771
     42  CG        39.3750   -2.3160  -52.4520 C.ar   38  HIS38       0.0820
     43  ND1       40.4570   -3.0760  -52.0790 N.ar   38  HIS38      -0.2267
     44  CD2       39.8240   -1.4770  -53.4200 C.ar   38  HIS38       0.1154
     45  CE1       41.5170   -2.7310  -52.8010 C.ar   38  HIS38       0.1986
     46  NE2       41.1630   -1.7540  -53.6180 N.ar   38  HIS38      -0.2212
     47  N         33.1580    0.9320  -52.9100 N.3    41  LEU41      -0.1245
     48  CA        32.7070    0.4630  -54.2090 C.3    41  LEU41       0.1561
     49  C         31.4830   -0.4320  -54.1060 C.2    41  LEU41       0.2260
     50  O         30.5430   -0.2770  -54.8610 O.2    41  LEU41      -0.2867
     51  CB        33.8180   -0.3080  -54.8940 C.3    41  LEU41       0.0270
     52  CG        34.9570    0.4870  -55.4810 C.3    41  LEU41       0.0019
     53  CD1       35.8200   -0.5100  -56.2890 C.3    41  LEU41       0.0001
     54  CD2       34.4370    1.6290  -56.3390 C.3    41  LEU41       0.0001
     55  N         37.0450   -5.1010  -59.8130 N.3    64  ARG64      -0.1231
     56  CA        37.9890   -3.9940  -59.8960 C.3    64  ARG64       0.1694
     57  C         38.9060   -4.0370  -61.1060 C.2    64  ARG64       0.2591
     58  O         39.2880   -2.9660  -61.6070 O.2    64  ARG64      -0.2718
     59  CB        38.7330   -3.8210  -58.5930 C.3    64  ARG64       0.0321
     60  CG        37.7420   -3.6400  -57.4560 C.3    64  ARG64       0.0489
     61  CD        38.3650   -2.9670  -56.2790 C.3    64  ARG64       0.2205
     62  NE        39.5100   -3.7170  -55.7800 N.pl3  64  ARG64      -0.0865
     63  CZ        39.4290   -4.7980  -55.0240 C.cat  64  ARG64       0.5346
     64  NH1       38.2500   -5.2710  -54.6460 N.pl3  64  ARG64       0.1354
     65  NH2       40.5460   -5.3920  -54.6310 N.pl3  64  ARG64       0.1354
     66  N         39.2130   -5.2370  -61.6180 N.am   65  LYS65      -0.1980
     67  CA        40.0580   -5.3410  -62.8290 C.3    65  LYS65       0.1596
     68  C         39.3320   -4.7020  -64.0010 C.2    65  LYS65       0.2287
     69  O         39.8850   -3.8610  -64.6700 O.2    65  LYS65      -0.2864
     70  CB        40.4740   -6.7830  -63.1570 C.3    65  LYS65       0.0298
     71  CG        41.3860   -7.4080  -62.1040 C.3    65  LYS65       0.0038
     72  CD        42.7770   -6.8510  -62.2650 C.3    65  LYS65       0.0206
     73  CE        43.3550   -6.4340  -60.9400 C.3    65  LYS65       0.1093
     74  NZ        44.6770   -5.7880  -61.1300 N.3    65  LYS65      -0.1314
     75  N         36.9080   -2.5620  -63.9230 N.3    67  LEU67      -0.1231
     76  CA        36.6310   -1.1610  -63.6590 C.3    67  LEU67       0.1693
     77  C         37.8840   -0.3430  -63.9450 C.2    67  LEU67       0.2591
     78  O         37.8260    0.7010  -64.6370 O.2    67  LEU67      -0.2718
     79  CB        36.2120   -0.9940  -62.2050 C.3    67  LEU67       0.0284
     80  CG        35.9790    0.4180  -61.6830 C.3    67  LEU67       0.0019
     81  CD1       35.1500    1.2330  -62.6150 C.3    67  LEU67       0.0001
     82  CD2       35.2820    0.3100  -60.3700 C.3    67  LEU67       0.0001
     83  N         39.0150   -0.8390  -63.4240 N.am   68  ALA68      -0.1980
     84  CA        40.3280   -0.2690  -63.7170 C.3    68  ALA68       0.1597
     85  C         40.5430   -0.1640  -65.2260 C.2    68  ALA68       0.2287
     86  O         41.0510    0.8580  -65.7170 O.2    68  ALA68      -0.2864
     87  CB        41.4240   -1.1140  -63.0910 C.3    68  ALA68       0.0319
     88  N         38.4340    2.9870  -66.1850 N.3    71  VAL71      -0.1231
     89  CA        38.7870    4.3080  -65.6050 C.3    71  VAL71       0.1692
     90  C         40.2240    4.7370  -65.9040 C.2    71  VAL71       0.2592
     91  O         40.4850    5.9180  -66.0140 O.2    71  VAL71      -0.2718
     92  CB        38.5350    4.4500  -64.0410 C.3    71  VAL71       0.0266
     93  CG1       37.1310    4.0330  -63.6370 C.3    71  VAL71       0.0020
     94  CG2       39.5460    3.6910  -63.2320 C.3    71  VAL71       0.0020
     95  N         41.1480    3.7940  -66.0360 N.am   72  PHE72      -0.1976
     96  CA        42.5400    4.1510  -66.3380 C.3    72  PHE72       0.1639
     97  C         42.8610    4.2230  -67.8140 C.2    72  PHE72       0.2290
     98  O         44.0280    4.1530  -68.2050 O.2    72  PHE72      -0.2864
     99  CB        43.5330    3.2010  -65.6640 C.3    72  PHE72       0.0560
    100  CG        43.5890    3.3640  -64.1840 C.ar   72  PHE72      -0.0200
    101  CD1       43.9030    4.5810  -63.6330 C.ar   72  PHE72      -0.0042
    102  CD2       43.2910    2.3000  -63.3360 C.ar   72  PHE72      -0.0042
    103  CE1       43.9310    4.7390  -62.2550 C.ar   72  PHE72      -0.0003
    104  CE2       43.3160    2.4450  -61.9530 C.ar   72  PHE72      -0.0003
    105  CZ        43.6360    3.6650  -61.4160 C.ar   72  PHE72      -0.0000
    106  N         37.9600    8.5470  -64.9220 N.3    78  LEU78      -0.1245
    107  CA        38.5230    8.4800  -63.5800 C.3    78  LEU78       0.1561
    108  C         37.9070    9.5450  -62.6790 C.2    78  LEU78       0.2260
    109  O         37.5540    9.2730  -61.5250 O.2    78  LEU78      -0.2867
    110  CB        40.0280    8.6150  -63.6250 C.3    78  LEU78       0.0270
    111  CG        40.7730    8.4700  -62.2950 C.3    78  LEU78       0.0019
    112  CD1       40.4090    7.1330  -61.6080 C.3    78  LEU78       0.0001
    113  CD2       42.2590    8.5790  -62.5140 C.3    78  LEU78       0.0001
    114  N         34.4590    8.4780  -61.3810 N.3    81  LEU81      -0.1231
    115  CA        34.5620    7.5510  -60.2410 C.3    81  LEU81       0.1693
    116  C         34.9530    8.2750  -58.9570 C.2    81  LEU81       0.2591
    117  O         34.3720    8.0390  -57.8920 O.2    81  LEU81      -0.2718
    118  CB        35.6090    6.4690  -60.5070 C.3    81  LEU81       0.0284
    119  CG        35.7900    5.4360  -59.3950 C.3    81  LEU81       0.0019
    120  CD1       34.5060    4.6770  -59.2790 C.3    81  LEU81       0.0001
    121  CD2       36.9730    4.4860  -59.6470 C.3    81  LEU81       0.0001
    122  N         35.9660    9.1260  -59.0580 N.am   82  GLU82      -0.1979
    123  CA        36.4340    9.8760  -57.8970 C.3    82  GLU82       0.1602
    124  C         35.3480   10.7880  -57.2940 C.2    82  GLU82       0.2287
    125  O         35.2340   10.8910  -56.0820 O.2    82  GLU82      -0.2864
    126  CB        37.6560   10.7220  -58.2230 C.3    82  GLU82       0.0415
    127  CG        38.9400    9.9610  -58.5840 C.3    82  GLU82       0.1163
    128  CD        40.0820   10.9230  -58.9820 C.2    82  GLU82       0.3649
    129  OE1       39.8860   11.8200  -59.8270 O.co2  82  GLU82      -0.2457
    130  OE2       41.1800   10.7850  -58.4420 O.co2  82  GLU82      -0.2457
    131  N         33.1130    8.2400  -55.2740 N.3    85  VAL85      -0.1231
    132  CA        33.6080    7.5130  -54.0790 C.3    85  VAL85       0.1692
    133  C         34.4550    8.2670  -53.0730 C.2    85  VAL85       0.2592
    134  O         34.5060    7.8810  -51.9320 O.2    85  VAL85      -0.2718
    135  CB        34.4420    6.2920  -54.4500 C.3    85  VAL85       0.0266
    136  CG1       33.6010    5.3050  -55.2170 C.3    85  VAL85       0.0020
    137  CG2       35.7030    6.6950  -55.2210 C.3    85  VAL85       0.0020
    138  N         35.1780    9.2930  -53.4990 N.am   86  HIS86      -0.1976
    139  CA        36.0700   10.0180  -52.5910 C.3    86  HIS86       0.1656
    140  C         35.3630   10.6890  -51.3890 C.2    86  HIS86       0.2291
    141  O         35.8620   10.6120  -50.2650 O.2    86  HIS86      -0.2864
    142  CB        36.9140   11.0590  -53.3280 C.3    86  HIS86       0.0771
    143  CG        38.1160   10.5040  -54.0390 C.ar   86  HIS86       0.0820
    144  ND1       38.9020   11.2750  -54.8780 N.ar   86  HIS86      -0.2267
    145  CD2       38.6570    9.2610  -54.0580 C.ar   86  HIS86       0.1154
    146  CE1       39.8930   10.5420  -55.3540 C.ar   86  HIS86       0.1986
    147  NE2       39.7600    9.3130  -54.8840 N.ar   86  HIS86      -0.2212
    148  N         47.7860    6.6620  -48.1130 N.3   107  ALA107     -0.1231
    149  CA        47.0400    7.0050  -49.3280 C.3   107  ALA107      0.1694
    150  C         47.8780    7.7530  -50.3620 C.2   107  ALA107      0.2592
    151  O         48.3910    8.8540  -50.0920 O.2   107  ALA107     -0.2718
    152  CB        45.7830    7.8290  -48.9730 C.3   107  ALA107      0.0304
    153  N         47.9860    7.1760  -51.5520 N.am  108  ALA108     -0.1966
    154  CA        48.6170    7.8660  -52.6640 C.3   108  ALA108      0.1728
    155  C         47.9900    9.2110  -52.9290 C.2   108  ALA108      0.2616
    156  O         48.6690   10.1240  -53.3030 O.2   108  ALA108     -0.2715
    157  CB        48.5160    7.0550  -53.8890 C.3   108  ALA108      0.0334
    158  N         46.6740    9.2910  -52.7620 N.am  109  LEU109     -0.1977
    159  CA        45.8790   10.4530  -53.1060 C.3   109  LEU109      0.1596
    160  C         45.5360   11.3400  -51.9100 C.2   109  LEU109      0.2287
    161  O         44.4910   12.0160  -51.8850 O.2   109  LEU109     -0.2864
    162  CB        44.5970    9.9520  -53.7880 C.3   109  LEU109      0.0297
    163  CG        44.7580    9.1480  -55.0830 C.3   109  LEU109      0.0022
    164  CD1       43.4960    9.2100  -55.8930 C.3   109  LEU109      0.0001
    165  CD2       45.8960    9.6700  -55.9280 C.3   109  LEU109      0.0001
    166  N         44.8920   14.9250  -53.1170 N.3   112  ARG112     -0.1245
    167  CA        43.7400   15.0350  -53.9940 C.3   112  ARG112      0.1563
    168  C         42.4110   14.8670  -53.2740 C.2   112  ARG112      0.2260
    169  O         41.4540   15.4810  -53.6700 O.2   112  ARG112     -0.2867
    170  CB        43.7830   14.0080  -55.1110 C.3   112  ARG112      0.0307
    171  CG        42.8260   14.3420  -56.2820 C.3   112  ARG112      0.0489
    172  CD        42.8690   13.3020  -57.4220 C.3   112  ARG112      0.2205
    173  NE        44.2150   13.1230  -57.9730 N.pl3 112  ARG112     -0.0865
    174  CZ        44.6340   12.0430  -58.6300 C.cat 112  ARG112      0.5346
    175  NH1       43.8400   11.0210  -58.8530 N.pl3 112  ARG112      0.1354
    176  NH2       45.8700   11.9820  -59.0850 N.pl3 112  ARG112      0.1354
    177  N         51.4570   -2.4480  -62.4900 N.3   137  GLU137     -0.1245
    178  CA        50.4150   -1.4580  -62.7770 C.3   137  GLU137      0.1567
    179  C         50.9740   -0.0150  -62.9170 C.2   137  GLU137      0.2260
    180  O         50.2480    0.8920  -63.3430 O.2   137  GLU137     -0.2867
    181  CB        49.3300   -1.5050  -61.6840 C.3   137  GLU137      0.0388
    182  CG        48.5080   -2.7970  -61.6280 C.3   137  GLU137      0.1160
    183  CD        47.5670   -2.8410  -60.4100 C.2   137  GLU137      0.3649
    184  OE1       47.8340   -2.1020  -59.4220 O.co2 137  GLU137     -0.2457
    185  OE2       46.5750   -3.6150  -60.4390 O.co2 137  GLU137     -0.2457
    186  N         49.3060    3.6260  -64.3970 N.3   141  ARG141     -0.1245
    187  CA        48.6520    4.4640  -63.3690 C.3   141  ARG141      0.1563
    188  C         49.4330    5.7170  -63.0000 C.2   141  ARG141      0.2260
    189  O         48.8550    6.6690  -62.4760 O.2   141  ARG141     -0.2867
    190  CB        48.3360    3.6360  -62.1150 C.3   141  ARG141      0.0307
    191  CG        47.4880    2.4290  -62.4210 C.3   141  ARG141      0.0489
    192  CD        46.8120    1.8650  -61.1990 C.3   141  ARG141      0.2205
    193  NE        46.0150    0.7020  -61.5450 N.pl3 141  ARG141     -0.0865
    194  CZ        45.3220   -0.0020  -60.6630 C.cat 141  ARG141      0.5346
    195  NH1       45.2820    0.3830  -59.3920 N.pl3 141  ARG141      0.1354
    196  NH2       44.6640   -1.0880  -61.0600 N.pl3 141  ARG141      0.1354
    197  N         48.2670    9.0760  -64.2400 N.3   144  PHE144     -0.1227
    198  CA        47.2010    9.7120  -63.4870 C.3   144  PHE144      0.1736
    199  C         47.6420   10.1780  -62.0920 C.2   144  PHE144      0.2595
    200  O         46.7730   10.3910  -61.2290 O.2   144  PHE144     -0.2718
    201  CB        46.0460    8.7210  -63.3240 C.3   144  PHE144      0.0547
    202  CG        45.4810    8.2460  -64.6250 C.ar  144  PHE144     -0.0202
    203  CD1       46.0460    7.1490  -65.2900 C.ar  144  PHE144     -0.0042
    204  CD2       44.3990    8.8860  -65.1960 C.ar  144  PHE144     -0.0042
    205  CE1       45.5430    6.7120  -66.4960 C.ar  144  PHE144     -0.0003
    206  CE2       43.8950    8.4470  -66.3970 C.ar  144  PHE144     -0.0003
    207  CZ        44.4700    7.3630  -67.0490 C.ar  144  PHE144     -0.0000
    208  N         48.9580   10.3190  -61.8720 N.am  145  GLN145     -0.1979
    209  CA        49.5070   10.7060  -60.5650 C.3   145  GLN145      0.1601
    210  C         50.5180   11.8290  -60.6360 C.2   145  GLN145      0.2287
    211  O         51.2950   12.0290  -59.7050 O.2   145  GLN145     -0.2864
    212  CB        50.1470    9.5240  -59.9000 C.3   145  GLN145      0.0394
    213  CG        49.1250    8.4410  -59.5780 C.3   145  GLN145      0.0908
    214  CD        49.7160    7.3540  -58.7370 C.2   145  GLN145      0.2608
    215  OE1       50.9520    7.2430  -58.5940 O.2   145  GLN145     -0.2717
    216  NE2       48.8520    6.5360  -58.1820 N.am  145  GLN145     -0.0878
@<TRIPOS>BOND
     1    98    97    2
     2    97    96    1
     3   207   205   ar
     4   207   206   ar
     5   205   203   ar
     6   206   204   ar
     7    96    95    1
     8    96    99    1
     9    88    89    1
    10    95    90   am
    11    91    90    2
    12    90    89    1
    13    86    85    2
    14    99   100    1
    15    89    92    1
    16   203   202   ar
    17    85    84    1
    18   204   202   ar
    19   106   107    1
    20    69    68    2
    21    78    77    2
    22   202   201    1
    23   186   187    1
    24   197   198    1
    25   100   101   ar
    26   100   102   ar
    27    92    93    1
    28    92    94    1
    29    68    67    1
    30    77    76    1
    31    77    83   am
    32    75    76    1
    33    84    83    1
    34    84    87    1
    35    76    79    1
    36   101   103   ar
    37   110   107    1
    38   110   111    1
    39   107   108    1
    40   198   201    1
    41   198   199    1
    42   187   188    1
    43   187   190    1
    44   180   179    2
    45   102   104   ar
    46    70    67    1
    47    70    71    1
    48   188   189    2
    49   179   178    1
    50    67    66    1
    51   178   177    1
    52   178   181    1
    53   108   109    2
    54    81    80    1
    55   113   111    1
    56   191   190    1
    57   191   192    1
    58   111   112    1
    59    72    71    1
    60    72    73    1
    61   103   105   ar
    62    79    80    1
    63   199   208   am
    64   199   200    2
    65   104   105   ar
    66   208   209    1
    67   181   182    1
    68    80    82    1
    69   182   183    1
    70    66    57   am
    71    58    57    2
    72   193   192    1
    73   193   194    2
    74   114   115    1
    75    74    73    1
    76    57    56    1
    77   196   194    1
    78   194   195    1
    79   210   209    1
    80   210   211    2
    81   209   212    1
    82   118   115    1
    83   118   119    1
    84   185   183   ar
    85   183   184   ar
    86   115   116    1
    87   212   213    1
    88    56    55    1
    89    56    59    1
    90   129   128   ar
    91   121   119    1
    92   213   214    1
    93   119   120    1
    94     7     5    1
    95   176   174    1
    96   122   116   am
    97   122   123    1
    98   128   127    1
    99   128   130   ar
   100   116   117    2
   101   175   174    1
   102   214   215    2
   103   214   216   am
   104     8     6    1
   105   174   173    2
   106    59    60    1
   107   127   126    1
   108   126   123    1
   109   173   172    1
   110     5     6    1
   111     5     2    1
   112   123   124    1
   113     4     3    2
   114    60    61    1
   115   172   171    1
   116   124   125    2
   117     3     2    1
   118     2     1    1
   119    54    52    1
   120    53    52    1
   121   171   170    1
   122    61    62    1
   123   165   163    1
   124   164   163    1
   125    62    63    2
   126    52    51    1
   127   146   147   ar
   128   146   144   ar
   129   131   132    1
   130   137   135    1
   131   136   135    1
   132   170   167    1
   133   163   162    1
   134    63    64    1
   135    63    65    1
   136    51    48    1
   137   147   145   ar
   138   144   143   ar
   139    50    49    2
   140   135   132    1
   141    48    49    1
   142    48    47    1
   143   132   133    1
   144   145   143   ar
   145   143   142    1
   146   167   168    1
   147   167   166    1
   148   157   154    1
   149   162   159    1
   150   169   168    2
   151    46    44   ar
   152    46    45   ar
   153   138   133   am
   154   138   139    1
   155    44    42   ar
   156   142   139    1
   157   156   155    2
   158   159   158    1
   159   159   160    1
   160   133   134    2
   161   155   158   am
   162   155   154    1
   163    17    16    1
   164    45    43   ar
   165   154   153    1
   166    31    30   ar
   167   139   140    1
   168    42    43   ar
   169    42    41    1
   170    36    35    2
   171    32    30   ar
   172    30    29    1
   173    38    41    1
   174    38    37    1
   175    38    39    1
   176    40    39    2
   177   160   161    2
   178    35    37   am
   179    35    34    1
   180    16    15    1
   181   153   150   am
   182    34    33    1
   183   140   141    2
   184    29    26    1
   185    28    27    2
   186    26    27    1
   187    26    25    1
   188    15    14    1
   189   150   151    2
   190   150   149    1
   191    14    13    1
   192    25    20   am
   193     9    10    1
   194    21    20    2
   195   149   152    1
   196   149   148    1
   197    13    10    1
   198    20    19    1
   199    23    22    1
   200    10    11    1
   201    22    19    1
   202    22    24    1
   203    19    18    1
   204    11    12    2
