@<TRIPOS>MOLECULE
tmp/2grjB01.pdb
 110 104 0 0 0
SMALL
GASTEIGER

@<TRIPOS>ATOM
      1  N         52.5030    5.5490  -56.6590 N.3    11  ILE11      -0.1231
      2  CA        52.4890    4.0900  -56.7030 C.3    11  ILE11       0.1692
      3  C         53.9230    3.4510  -56.7690 C.2    11  ILE11       0.2593
      4  O         54.8040    3.8850  -57.5160 O.2    11  ILE11      -0.2718
      5  CB        51.6240    3.6330  -57.9070 C.3    11  ILE11       0.0266
      6  CG1       51.3130    2.1270  -57.8270 C.3    11  ILE11       0.0019
      7  CG2       52.3030    3.9790  -59.2100 C.3    11  ILE11       0.0020
      8  CD1       50.0950    1.7000  -58.7100 C.3    11  ILE11       0.0001
      9  N         54.1450    2.4390  -55.9540 N.am   12  GLY12      -0.1942
     10  CA        55.3990    1.7170  -55.9860 C.3    12  GLY12       0.2014
     11  C         56.5700    2.3490  -55.2360 C.2    12  GLY12       0.2640
     12  O         57.6370    1.7750  -55.1940 O.2    12  GLY12      -0.2714
     13  N         56.3720    3.5200  -54.6350 N.am   13  THR13      -0.1936
     14  CA        57.4640    4.2300  -53.9970 C.3    13  THR13       0.2028
     15  C         57.7810    3.6530  -52.6240 C.2    13  THR13       0.2643
     16  O         58.9120    3.7460  -52.1720 O.2    13  THR13      -0.2714
     17  CB        57.1710    5.7380  -53.8710 C.3    13  THR13       0.1808
     18  OG1       55.9770    5.9510  -53.1170 O.3    13  THR13      -0.2208
     19  CG2       57.0280    6.3630  -55.2550 C.3    13  THR13       0.0379
     20  N         56.7880    3.0730  -51.9450 N.am   14  GLY14      -0.1939
     21  CA        57.0290    2.4130  -50.6690 C.3    14  GLY14       0.2014
     22  C         56.1720    2.7780  -49.4680 C.2    14  GLY14       0.2639
     23  O         56.5820    2.5230  -48.3210 O.2    14  GLY14      -0.2714
     24  N         54.9720    3.3090  -49.7240 N.am   15  LYS15      -0.1963
     25  CA        53.9980    3.6620  -48.6540 C.3    15  LYS15       0.1728
     26  C         53.6220    2.4480  -47.8000 C.2    15  LYS15       0.2617
     27  O         53.6700    2.5160  -46.5800 O.2    15  LYS15      -0.2715
     28  CB        52.7290    4.3020  -49.2360 C.3    15  LYS15       0.0311
     29  CG        53.0230    5.5300  -50.0580 C.3    15  LYS15       0.0038
     30  CD        51.8260    6.0800  -50.7980 C.3    15  LYS15       0.0206
     31  CE        51.1430    5.0930  -51.7420 C.3    15  LYS15       0.1093
     32  NZ        51.9080    4.6160  -52.8870 N.3    15  LYS15      -0.1314
     33  N         53.2520    1.3380  -48.4350 N.am   16  SER16      -0.1936
     34  CA        52.9140    0.1230  -47.6790 C.3    16  SER16       0.2055
     35  C         54.0690   -0.2920  -46.7800 C.2    16  SER16       0.2643
     36  O         53.8710   -0.7410  -45.6380 O.2    16  SER16      -0.2714
     37  CB        52.5950   -1.0790  -48.5890 C.3    16  SER16       0.2130
     38  OG        51.6110   -0.7480  -49.5360 O.3    16  SER16      -0.2179
     39  N         55.2610   -0.1910  -47.3390 N.am   17  THR17      -0.1950
     40  CA        56.4710   -0.6610  -46.6730 C.3    17  THR17       0.1897
     41  C         56.7470    0.2270  -45.4600 C.2    17  THR17       0.2313
     42  O         56.9440   -0.2700  -44.3500 O.2    17  THR17      -0.2863
     43  CB        57.6650   -0.6510  -47.6700 C.3    17  THR17       0.1794
     44  OG1       57.2820   -1.3090  -48.9040 O.3    17  THR17      -0.2208
     45  CG2       58.8470   -1.3310  -47.0760 C.3    17  THR17       0.0378
     46  N         47.3480    5.8700  -44.9040 N.3   106  GLU106     -0.1245
     47  CA        48.1250    5.4430  -46.0460 C.3   106  GLU106      0.1567
     48  C         47.3340    5.7320  -47.2750 C.2   106  GLU106      0.2260
     49  O         46.2970    5.1140  -47.4580 O.2   106  GLU106     -0.2867
     50  CB        48.3540    3.9370  -45.9430 C.3   106  GLU106      0.0388
     51  CG        49.2740    3.3790  -47.0120 C.3   106  GLU106      0.1160
     52  CD        49.3340    1.8180  -47.0110 C.2   106  GLU106      0.3649
     53  OE1       49.0120    1.1300  -46.0030 O.co2 106  GLU106     -0.2457
     54  OE2       49.7270    1.2820  -48.0630 O.co2 106  GLU106     -0.2457
     55  N         59.4260   -2.4310  -59.5930 N.3   134  ARG134     -0.1231
     56  CA        58.6880   -2.9480  -58.4510 C.3   134  ARG134      0.1694
     57  C         57.2350   -3.3320  -58.6920 C.2   134  ARG134      0.2592
     58  O         56.7480   -4.2010  -58.0050 O.2   134  ARG134     -0.2718
     59  CB        58.6380   -1.8930  -57.3490 C.3   134  ARG134      0.0321
     60  CG        59.9340   -1.5820  -56.7140 C.3   134  ARG134      0.0489
     61  CD        59.8070   -0.3340  -55.8420 C.3   134  ARG134      0.2205
     62  NE        60.9960   -0.1300  -55.0500 N.pl3 134  ARG134     -0.0865
     63  CZ        61.2080    0.9030  -54.2580 C.cat 134  ARG134      0.5346
     64  NH1       60.3010    1.8560  -54.1240 N.pl3 134  ARG134      0.1354
     65  NH2       62.3530    0.9810  -53.5920 N.pl3 134  ARG134      0.1354
     66  N         56.5320   -2.6210  -59.5750 N.am  135  ASN135     -0.1974
     67  CA        55.0590   -2.7190  -59.7050 C.3   135  ASN135      0.1688
     68  C         54.6200   -2.6760  -61.1500 C.2   135  ASN135      0.2292
     69  O         55.0600   -1.7950  -61.9000 O.2   135  ASN135     -0.2864
     70  CB        54.3980   -1.5760  -58.9520 C.3   135  ASN135      0.1181
     71  CG        52.8760   -1.6850  -58.9010 C.2   135  ASN135      0.2629
     72  OD1       52.2200   -1.8940  -59.9220 O.2   135  ASN135     -0.2716
     73  ND2       52.3070   -1.4910  -57.7030 N.am  135  ASN135     -0.0877
     74  N         63.1610    6.4900  -51.1160 N.3   157  ASN157     -0.1240
     75  CA        63.2500    5.0450  -50.9910 C.3   157  ASN157      0.1653
     76  C         63.8330    4.4270  -52.2440 C.2   157  ASN157      0.2266
     77  O         63.1580    3.6870  -52.9270 O.2   157  ASN157     -0.2867
     78  CB        61.8860    4.4510  -50.7060 C.3   157  ASN157      0.1155
     79  CG        61.9480    2.9680  -50.4060 C.2   157  ASN157      0.2627
     80  OD1       62.9500    2.4890  -49.9010 O.2   157  ASN157     -0.2716
     81  ND2       60.8720    2.2350  -50.7230 N.am  157  ASN157     -0.0877
     82  N         67.0360    2.8990  -52.1980 N.3   159  SER159     -0.1202
     83  CA        68.0770    1.9830  -51.8460 C.3   159  SER159      0.2020
     84  C         67.5000    0.7370  -51.1790 C.2   159  SER159      0.2619
     85  O         66.6020    0.0970  -51.7240 O.2   159  SER159     -0.2717
     86  CB        69.0370    2.7720  -50.9410 C.3   159  SER159      0.2103
     87  OG        69.9710    1.9720  -50.2160 O.3   159  SER159     -0.2182
     88  N         68.0260    0.3790  -50.0170 N.am  160  THR160     -0.1938
     89  CA        67.6440   -0.8400  -49.3130 C.3   160  THR160      0.2028
     90  C         66.4850   -0.6210  -48.3440 C.2   160  THR160      0.2642
     91  O         66.1840    0.4940  -47.9660 O.2   160  THR160     -0.2714
     92  CB        68.8310   -1.3370  -48.4700 C.3   160  THR160      0.1808
     93  OG1       69.1320   -0.3720  -47.4650 O.3   160  THR160     -0.2208
     94  CG2       70.0530   -1.4890  -49.3090 C.3   160  THR160      0.0379
     95  N         65.8610   -1.7100  -47.9250 N.am  161  LEU161     -0.1977
     96  CA        64.8730   -1.6770  -46.8480 C.3   161  LEU161      0.1596
     97  C         65.4720   -1.2210  -45.5390 C.2   161  LEU161      0.2287
     98  O         64.8330   -0.4790  -44.8230 O.2   161  LEU161     -0.2864
     99  CB        64.2560   -3.0540  -46.6320 C.3   161  LEU161      0.0297
    100  CG        63.1110   -3.2050  -45.6160 C.3   161  LEU161      0.0022
    101  CD1       61.9900   -2.1870  -45.7920 C.3   161  LEU161      0.0001
    102  CD2       62.5420   -4.6170  -45.6850 C.3   161  LEU161      0.0001
    103  N         65.7210    2.4590  -45.6690 N.3   164  LEU164     -0.1245
    104  CA        64.3810    3.0060  -45.4460 C.3   164  LEU164      0.1561
    105  C         63.9620    2.9030  -43.9620 C.2   164  LEU164      0.2260
    106  O         63.3500    3.8040  -43.4310 O.2   164  LEU164     -0.2867
    107  CB        63.3620    2.3570  -46.3530 C.3   164  LEU164      0.0270
    108  CG        61.9420    2.8960  -46.2000 C.3   164  LEU164      0.0019
    109  CD1       61.7910    4.3040  -46.7320 C.3   164  LEU164      0.0001
    110  CD2       60.9830    1.9570  -46.8840 C.3   164  LEU164      0.0001
@<TRIPOS>BOND
     1    69    68    2
     2    68    67    1
     3    72    71    2
     4    67    66    1
     5    67    70    1
     6    55    56    1
     7    66    57   am
     8     7     5    1
     9    70    71    1
    10    71    73   am
    11     8     6    1
    12    57    56    1
    13    57    58    2
    14    56    59    1
    15     5     6    1
    16     5     2    1
    17     4     3    2
    18    59    60    1
    19     3     2    1
    20     3     9   am
    21    60    61    1
    22     2     1    1
    23    10     9    1
    24    10    11    1
    25    61    62    1
    26    19    17    1
    27    11    12    2
    28    11    13   am
    29    62    63    2
    30    13    14    1
    31    63    64    1
    32    63    65    1
    33    14    17    1
    34    14    15    1
    35    17    18    1
    36    77    76    2
    37    32    31    1
    38    15    16    2
    39    15    20   am
    40    76    75    1
    41    82    83    1
    42    20    21    1
    43    83    84    1
    44    83    86    1
    45    31    30    1
    46    85    84    2
    47    84    88   am
    48    74    75    1
    49    75    78    1
    50    86    87    1
    51    30    29    1
    52    81    79   am
    53    78    79    1
    54    21    22    1
    55    79    80    2
    56    29    28    1
    57    88    89    1
    58    24    22   am
    59    24    25    1
    60    38    37    1
    61    22    23    2
    62    89    92    1
    63    89    90    1
    64    94    92    1
    65    28    25    1
    66    44    43    1
    67    25    26    1
    68    37    34    1
    69    92    93    1
    70    33    26   am
    71    33    34    1
    72    90    91    2
    73    90    95   am
    74    54    52   ar
    75    95    96    1
    76    26    27    2
    77    34    35    1
    78    43    45    1
    79    43    40    1
    80    49    48    2
    81    39    35   am
    82    39    40    1
    83    48    47    1
    84    51    52    1
    85    51    50    1
    86    52    53   ar
    87   110   108    1
    88    96    99    1
    89    96    97    1
    90    35    36    2
    91   109   108    1
    92    40    41    1
    93    99   100    1
    94   107   108    1
    95   107   104    1
    96    47    50    1
    97    47    46    1
    98   101   100    1
    99   102   100    1
   100   103   104    1
   101    97    98    2
   102    41    42    2
   103   104   105    1
   104   105   106    2
