@<TRIPOS>MOLECULE
tmp/2gruB01.pdb
 128 119 0 0 0
SMALL
GASTEIGER

@<TRIPOS>ATOM
      1  N         19.6520   19.7580  -27.4840 N.3   134  ASP134     -0.1225
      2  CA        18.2460   19.7710  -27.0840 C.3   134  ASP134      0.1805
      3  C         17.9330   19.3920  -25.6060 C.2   134  ASP134      0.2598
      4  O         17.4350   20.2360  -24.7990 O.2   134  ASP134     -0.2718
      5  CB        17.4090   18.9600  -28.0910 C.3   134  ASP134      0.1424
      6  CG        15.8990   19.1680  -27.9090 C.2   134  ASP134      0.3668
      7  OD1       15.4980   20.1960  -27.3450 O.co2 134  ASP134     -0.2456
      8  OD2       15.1040   18.2820  -28.2900 O.co2 134  ASP134     -0.2456
      9  N         18.2370   18.1580  -25.2300 N.am  135  SER135     -0.1952
     10  CA        17.7840   17.6700  -23.9430 C.3   135  SER135      0.1924
     11  C         18.5010   18.2670  -22.7550 C.2   135  SER135      0.2314
     12  O         17.9240   18.4140  -21.7080 O.2   135  SER135     -0.2863
     13  CB        17.7720   16.1340  -23.9040 C.3   135  SER135      0.2116
     14  OG        19.0480   15.5850  -23.8270 O.3   135  SER135     -0.2180
     15  N         16.9400   22.0240  -21.2220 N.3   138  SER138     -0.1217
     16  CA        15.6470   21.7570  -20.6070 C.3   138  SER138      0.1889
     17  C         16.0510   21.2830  -19.2070 C.2   138  SER138      0.2288
     18  O         17.0710   20.6040  -19.0850 O.2   138  SER138     -0.2866
     19  CB        14.9400   20.6100  -21.3350 C.3   138  SER138      0.2089
     20  OG        13.7720   20.2510  -20.6410 O.3   138  SER138     -0.2183
     21  N         13.8470   19.4860  -17.4080 N.3   140  LYS140     -0.1245
     22  CA        12.9410   18.3600  -17.3210 C.3   140  LYS140      0.1561
     23  C         13.7700   17.1340  -17.1390 C.2   140  LYS140      0.2260
     24  O         14.7800   16.9920  -17.8120 O.2   140  LYS140     -0.2867
     25  CB        12.1790   18.1930  -18.6500 C.3   140  LYS140      0.0271
     26  CG        10.8840   19.0080  -18.8100 C.3   140  LYS140      0.0035
     27  CD        10.2610   18.6980  -20.2130 C.3   140  LYS140      0.0206
     28  CE         8.8630   19.3220  -20.3050 C.3   140  LYS140      0.1093
     29  NZ         8.3580   19.1630  -21.6790 N.3   140  LYS140     -0.1314
     30  N         13.1380   12.8190  -16.3120 N.3   142  ALA142     -0.1245
     31  CA        12.0770   11.8330  -16.2700 C.3   142  ALA142      0.1562
     32  C         12.6030   10.4510  -16.5610 C.2   142  ALA142      0.2260
     33  O         13.6130   10.3040  -17.2390 O.2   142  ALA142     -0.2867
     34  CB        10.9480   12.1940  -17.2400 C.3   142  ALA142      0.0290
     35  N          8.4280    8.3380  -19.8010 N.3   150  ASN150     -0.1240
     36  CA         8.6920    9.6010  -19.1080 C.3   150  ASN150      0.1653
     37  C          7.5470   10.0870  -18.2400 C.2   150  ASN150      0.2266
     38  O          7.2200   11.2960  -18.1620 O.2   150  ASN150     -0.2867
     39  CB         9.0820   10.6390  -20.1440 C.3   150  ASN150      0.1155
     40  CG        10.5300   10.4650  -20.6000 C.2   150  ASN150      0.2627
     41  OD1       11.2260    9.4950  -20.2170 O.2   150  ASN150     -0.2716
     42  ND2       11.0150   11.4490  -21.3610 N.am  150  ASN150     -0.0877
     43  N         15.5360   18.3810  -34.5910 N.3   182  GLU182     -0.1245
     44  CA        14.9950   19.2910  -33.5410 C.3   182  GLU182      0.1567
     45  C         15.4880   20.7360  -33.8460 C.2   182  GLU182      0.2260
     46  O         14.8050   21.7100  -33.5420 O.2   182  GLU182     -0.2867
     47  CB        15.4660   18.8670  -32.1290 C.3   182  GLU182      0.0388
     48  CG        14.9960   17.4390  -31.6980 C.3   182  GLU182      0.1160
     49  CD        13.4970   17.4260  -31.2790 C.2   182  GLU182      0.3649
     50  OE1       13.0610   16.4260  -30.6690 O.co2 182  GLU182     -0.2457
     51  OE2       12.7630   18.4610  -31.4550 O.co2 182  GLU182     -0.2457
     52  N         13.3510   22.0230  -36.3110 N.3   185  LYS185     -0.1245
     53  CA        12.1000   22.3600  -35.6370 C.3   185  LYS185      0.1561
     54  C         12.2270   23.7920  -35.0780 C.2   185  LYS185      0.2260
     55  O         11.3040   24.5830  -35.2450 O.2   185  LYS185     -0.2867
     56  CB        11.7430   21.3200  -34.5580 C.3   185  LYS185      0.0271
     57  CG        10.6880   21.7860  -33.5890 C.3   185  LYS185      0.0035
     58  CD        10.7090   20.9930  -32.2500 C.3   185  LYS185      0.0206
     59  CE        11.7640   21.5500  -31.2660 C.3   185  LYS185      0.1093
     60  NZ        12.0500   20.6480  -29.9790 N.3   185  LYS185     -0.1314
     61  N         16.3540   28.0770  -27.8560 N.3   224  LYS224     -0.1245
     62  CA        15.5330   27.5450  -26.7680 C.3   224  LYS224      0.1561
     63  C         15.5490   28.5160  -25.5750 C.2   224  LYS224      0.2260
     64  O         14.5060   28.8210  -25.0040 O.2   224  LYS224     -0.2867
     65  CB        15.9040   26.1240  -26.3570 C.3   224  LYS224      0.0271
     66  CG        15.8570   25.0450  -27.5120 C.3   224  LYS224      0.0035
     67  CD        16.0530   23.6600  -26.8890 C.3   224  LYS224      0.0206
     68  CE        14.8270   23.3400  -26.0420 C.3   224  LYS224      0.1093
     69  NZ        14.8920   22.0250  -25.4890 N.3   224  LYS224     -0.1314
     70  N          8.3590   25.0030  -19.2540 N.3   234  GLU234     -0.1245
     71  CA         7.8720   24.7390  -20.6350 C.3   234  GLU234      0.1567
     72  C          6.3300   24.5540  -20.6950 C.2   234  GLU234      0.2260
     73  O          5.7930   23.6500  -21.3410 O.2   234  GLU234     -0.2867
     74  CB         8.6210   23.5150  -21.2240 C.3   234  GLU234      0.0388
     75  CG        10.1570   23.5750  -20.9570 C.3   234  GLU234      0.1160
     76  CD        10.9110   22.4650  -21.5910 C.2   234  GLU234      0.3649
     77  OE1       10.4150   21.9090  -22.5800 O.co2 234  GLU234     -0.2457
     78  OE2       11.9840   22.0880  -21.0990 O.co2 234  GLU234     -0.2457
     79  N          8.3360   24.0620  -28.3180 N.3   241  PHE241     -0.1227
     80  CA         9.3500   23.0220  -28.5000 C.3   241  PHE241      0.1736
     81  C          8.7660   21.6440  -28.5790 C.2   241  PHE241      0.2595
     82  O          9.4640   20.7210  -28.9380 O.2   241  PHE241     -0.2718
     83  CB        10.4700   23.1520  -27.4370 C.3   241  PHE241      0.0547
     84  CG        11.0930   24.5100  -27.4660 C.ar  241  PHE241     -0.0202
     85  CD1       10.8670   25.4090  -26.4560 C.ar  241  PHE241     -0.0042
     86  CD2       11.7980   24.9170  -28.5970 C.ar  241  PHE241     -0.0042
     87  CE1       11.4060   26.6810  -26.5150 C.ar  241  PHE241     -0.0003
     88  CE2       12.3600   26.2000  -28.6870 C.ar  241  PHE241     -0.0003
     89  CZ        12.1380   27.0890  -27.6490 C.ar  241  PHE241     -0.0000
     90  N          7.4350   21.5840  -28.4270 N.am  242  GLU242     -0.1979
     91  CA         6.6670   20.3670  -28.6850 C.3   242  GLU242      0.1602
     92  C          6.0270   20.2840  -30.0850 C.2   242  GLU242      0.2287
     93  O          5.2290   19.3790  -30.3710 O.2   242  GLU242     -0.2864
     94  CB         5.6180   20.2420  -27.5950 C.3   242  GLU242      0.0415
     95  CG         5.4940   18.8070  -27.1480 C.3   242  GLU242      0.1163
     96  CD         6.1640   18.5300  -25.8530 C.2   242  GLU242      0.3649
     97  OE1        5.9020   19.3290  -24.9290 O.co2 242  GLU242     -0.2457
     98  OE2        6.8820   17.4990  -25.7450 O.co2 242  GLU242     -0.2457
     99  N          5.5910   16.9890  -32.0010 N.3   245  HIS245     -0.1241
    100  CA         5.6720   15.9740  -30.9810 C.3   245  HIS245      0.1621
    101  C          4.3330   15.2930  -30.6710 C.2   245  HIS245      0.2264
    102  O          4.3020   14.1510  -30.2040 O.2   245  HIS245     -0.2867
    103  CB         6.2530   16.5890  -29.7270 C.3   245  HIS245      0.0745
    104  CG         7.7510   16.7520  -29.7620 C.ar  245  HIS245      0.0817
    105  ND1        8.3870   17.5870  -30.6580 N.ar  245  HIS245     -0.2268
    106  CD2        8.7190   16.2410  -28.9630 C.ar  245  HIS245      0.1154
    107  CE1        9.6910   17.5600  -30.4310 C.ar  245  HIS245      0.1986
    108  NE2        9.9270   16.7260  -29.4250 N.ar  245  HIS245     -0.2212
    109  N          5.3560   11.6330  -30.9870 N.3   249  HIS249     -0.1241
    110  CA         5.4820   10.6390  -29.8820 C.3   249  HIS249      0.1621
    111  C          4.7990    9.3190  -30.2770 C.2   249  HIS249      0.2264
    112  O          5.3120    8.2270  -30.0100 O.2   249  HIS249     -0.2867
    113  CB         4.9410   11.1900  -28.5310 C.3   249  HIS249      0.0745
    114  CG         5.8170   12.2260  -27.8710 C.ar  249  HIS249      0.0817
    115  ND1        5.3030   13.3140  -27.1890 N.ar  249  HIS249     -0.2268
    116  CD2        7.1680   12.3440  -27.7860 C.ar  249  HIS249      0.1154
    117  CE1        6.2990   14.0430  -26.7040 C.ar  249  HIS249      0.1986
    118  NE2        7.4410   13.4680  -27.0420 N.ar  249  HIS249     -0.2212
    119  N         13.7860    9.4990  -32.3530 N.3   261  HIS261     -0.1241
    120  CA        12.9000   10.5300  -31.8950 C.3   261  HIS261      0.1621
    121  C         12.8870   11.7440  -32.8740 C.2   261  HIS261      0.2264
    122  O         11.8100   12.2670  -33.1690 O.2   261  HIS261     -0.2867
    123  CB        13.3280   10.9780  -30.5150 C.3   261  HIS261      0.0745
    124  CG        12.5540   12.1500  -29.9970 C.ar  261  HIS261      0.0817
    125  ND1       11.3070   12.0270  -29.4180 N.ar  261  HIS261     -0.2268
    126  CD2       12.8650   13.4640  -29.9420 C.ar  261  HIS261      0.1154
    127  CE1       10.8750   13.2290  -29.0710 C.ar  261  HIS261      0.1986
    128  NE2       11.8100   14.1070  -29.3640 N.ar  261  HIS261     -0.2212
@<TRIPOS>BOND
     1    52    53    1
     2    53    54    1
     3    53    56    1
     4    55    54    2
     5    43    44    1
     6    56    57    1
     7    45    46    2
     8    45    44    1
     9    57    58    1
    10    44    47    1
    11   122   121    2
    12   121   120    1
    13   119   120    1
    14    58    59    1
    15    47    48    1
    16    99   100    1
    17   120   123    1
    18    48    49    1
    19    51    49   ar
    20    49    50   ar
    21    59    60    1
    22   109   110    1
    23   100   101    1
    24   100   103    1
    25   101   102    2
    26   105   107   ar
    27   105   104   ar
    28   123   124    1
    29   107   108   ar
    30    93    92    2
    31   111   112    2
    32   111   110    1
    33    92    91    1
    34   124   126   ar
    35   124   125   ar
    36   126   128   ar
    37   110   113    1
    38   104   103    1
    39   104   106   ar
    40   108   106   ar
    41   125   127   ar
    42   128   127   ar
    43    82    81    2
    44    88    86   ar
    45    88    89   ar
    46    91    90    1
    47    91    94    1
    48    86    84   ar
    49    81    80    1
    50    81    90   am
    51   113   114    1
    52    80    79    1
    53    80    83    1
    54     8     6   ar
    55     5     6    1
    56     5     2    1
    57     6     7   ar
    58   114   116   ar
    59   114   115   ar
    60    61    62    1
    61   116   118   ar
    62    89    87   ar
    63    94    95    1
    64    66    67    1
    65    66    65    1
    66     1     2    1
    67    84    83    1
    68    84    85   ar
    69   115   117   ar
    70    95    96    1
    71     2     3    1
    72   118   117   ar
    73    67    68    1
    74    62    65    1
    75    62    63    1
    76    87    85   ar
    77    68    69    1
    78    96    98   ar
    79    96    97   ar
    80     3     9   am
    81     3     4    2
    82    63    64    2
    83     9    10    1
    84    10    13    1
    85    10    11    1
    86    13    14    1
    87    11    12    2
    88    77    76   ar
    89    29    28    1
    90    76    78   ar
    91    76    75    1
    92    42    40   am
    93    73    72    2
    94    19    20    1
    95    19    16    1
    96    74    75    1
    97    74    71    1
    98    15    16    1
    99    72    71    1
   100    71    70    1
   101    16    17    1
   102    40    41    2
   103    40    39    1
   104    28    27    1
   105    27    26    1
   106    39    36    1
   107    35    36    1
   108    17    18    2
   109    36    37    1
   110    26    25    1
   111    25    22    1
   112    37    38    2
   113    24    23    2
   114    21    22    1
   115    22    23    1
   116    34    31    1
   117    33    32    2
   118    32    31    1
   119    30    31    1
