@<TRIPOS>MOLECULE
tmp/2gruA01.pdb
 122 113 0 0 0
SMALL
GASTEIGER

@<TRIPOS>ATOM
      1  N          2.9370   19.1730   12.4410 N.3   134  ASP134     -0.1225
      2  CA         4.3720   19.3000   12.1590 C.3   134  ASP134      0.1805
      3  C          4.6940   18.8950   10.7430 C.2   134  ASP134      0.2598
      4  O          5.0900   19.7360    9.9260 O.2   134  ASP134     -0.2718
      5  CB         5.1900   18.4790   13.2030 C.3   134  ASP134      0.1424
      6  CG         6.6740   18.6610   13.0430 C.2   134  ASP134      0.3668
      7  OD1        7.0610   19.7080   12.4880 O.co2 134  ASP134     -0.2456
      8  OD2        7.4480   17.7620   13.4470 O.co2 134  ASP134     -0.2456
      9  N          4.4790   17.6200   10.4140 N.am  135  SER135     -0.1952
     10  CA         4.9610   17.1040    9.1360 C.3   135  SER135      0.1924
     11  C          4.2760   17.6710    7.8830 C.2   135  SER135      0.2314
     12  O          4.9490   17.9250    6.9040 O.2   135  SER135     -0.2863
     13  CB         5.1060   15.5420    9.1760 C.3   135  SER135      0.2116
     14  OG         3.9740   14.9140    8.6570 O.3   135  SER135     -0.2180
     15  N          5.7430   21.4700    6.3390 N.3   138  SER138     -0.1217
     16  CA         7.0330   21.1900    5.7550 C.3   138  SER138      0.1889
     17  C          6.7160   20.7670    4.3250 C.2   138  SER138      0.2288
     18  O          5.7420   20.0580    4.0780 O.2   138  SER138     -0.2866
     19  CB         7.7230   20.0410    6.4550 C.3   138  SER138      0.2089
     20  OG         9.0530   19.8370    5.9530 O.3   138  SER138     -0.2183
     21  N          9.1350   19.1070    2.5650 N.3   140  LYS140     -0.1245
     22  CA        10.0880   18.0260    2.3140 C.3   140  LYS140      0.1561
     23  C          9.3330   16.7740    2.0930 C.2   140  LYS140      0.2260
     24  O          8.4110   16.5010    2.8610 O.2   140  LYS140     -0.2867
     25  CB        11.0030   17.7700    3.5090 C.3   140  LYS140      0.0271
     26  CG        11.8450   18.9600    3.8870 C.3   140  LYS140      0.0035
     27  CD        13.1040   18.5500    4.5430 C.3   140  LYS140      0.0206
     28  CE        13.0930   18.7500    6.0000 C.3   140  LYS140      0.1093
     29  NZ        14.5130   19.0550    6.3820 N.3   140  LYS140     -0.1314
     30  N          6.7670   18.0500   19.9140 N.3   182  GLU182     -0.1245
     31  CA         7.2480   18.9740   18.8670 C.3   182  GLU182      0.1567
     32  C          6.6070   20.3140   19.0780 C.2   182  GLU182      0.2260
     33  O          7.2030   21.3310   18.8000 O.2   182  GLU182     -0.2867
     34  CB         6.8910   18.4460   17.4740 C.3   182  GLU182      0.0388
     35  CG         7.4870   17.0750   17.1130 C.3   182  GLU182      0.1160
     36  CD         8.9610   17.1770   16.6350 C.2   182  GLU182      0.3649
     37  OE1        9.5070   16.2240   16.0310 O.co2 182  GLU182     -0.2457
     38  OE2        9.5620   18.2230   16.8160 O.co2 182  GLU182     -0.2457
     39  N          8.5890   21.6380   21.7510 N.3   185  LYS185     -0.1245
     40  CA         9.7870   22.2210   21.0640 C.3   185  LYS185      0.1561
     41  C          9.5160   23.6350   20.5010 C.2   185  LYS185      0.2260
     42  O         10.2860   24.5680   20.7250 O.2   185  LYS185     -0.2867
     43  CB        10.3090   21.2770   19.9550 C.3   185  LYS185      0.0271
     44  CG        11.4600   21.8500   19.0780 C.3   185  LYS185      0.0035
     45  CD        11.5920   21.1320   17.7480 C.3   185  LYS185      0.0206
     46  CE        10.5200   21.4750   16.7250 C.3   185  LYS185      0.1093
     47  NZ        10.3460   20.4240   15.6290 N.3   185  LYS185     -0.1314
     48  N          5.6000   27.6500   12.9920 N.3   224  LYS224     -0.1245
     49  CA         6.4720   27.0880   11.9450 C.3   224  LYS224      0.1561
     50  C          6.5600   28.0470   10.7400 C.2   224  LYS224      0.2260
     51  O          7.6600   28.3700   10.2740 O.2   224  LYS224     -0.2867
     52  CB         6.0320   25.6900   11.5480 C.3   224  LYS224      0.0271
     53  CG         6.2290   24.6400   12.7110 C.3   224  LYS224      0.0035
     54  CD         6.1990   23.2080   12.1180 C.3   224  LYS224      0.0206
     55  CE         7.5210   22.9320   11.3150 C.3   224  LYS224      0.1093
     56  NZ         7.4770   21.6290   10.5220 N.3   224  LYS224     -0.1314
     57  N          9.3260   29.1470    8.0700 N.3   228  LEU228     -0.1245
     58  CA         9.4480   28.3600    6.8220 C.3   228  LEU228      0.1561
     59  C          8.8190   29.0580    5.5960 C.2   228  LEU228      0.2260
     60  O          9.0570   28.6620    4.4660 O.2   228  LEU228     -0.2867
     61  CB         8.8140   26.9800    7.0040 C.3   228  LEU228      0.0270
     62  CG         9.3620   26.1580    8.1560 C.3   228  LEU228      0.0019
     63  CD1        8.8760   24.7070    7.9630 C.3   228  LEU228      0.0001
     64  CD2       10.9740   26.2690    8.1690 C.3   228  LEU228      0.0001
     65  N         14.2930   24.7570    4.6380 N.3   234  GLU234     -0.1245
     66  CA        14.6600   24.5130    6.0190 C.3   234  GLU234      0.1567
     67  C         16.1740   24.4150    6.2230 C.2   234  GLU234      0.2260
     68  O         16.6550   23.6590    7.0440 O.2   234  GLU234     -0.2867
     69  CB        13.9420   23.2740    6.5690 C.3   234  GLU234      0.0388
     70  CG        12.4450   23.3210    6.2350 C.3   234  GLU234      0.1160
     71  CD        11.6800   22.1700    6.8310 C.2   234  GLU234      0.3649
     72  OE1       12.0910   21.6710    7.9090 O.co2 234  GLU234     -0.2457
     73  OE2       10.6920   21.7580    6.2130 O.co2 234  GLU234     -0.2457
     74  N         13.8520   23.9870   13.7440 N.3   241  PHE241     -0.1227
     75  CA        12.8460   22.8990   13.9500 C.3   241  PHE241      0.1736
     76  C         13.5310   21.5530   14.1940 C.2   241  PHE241      0.2595
     77  O         12.9070   20.5680   14.5590 O.2   241  PHE241     -0.2718
     78  CB        11.7370   22.9440   12.8780 C.3   241  PHE241      0.0547
     79  CG        11.0450   24.3050   12.8510 C.ar  241  PHE241     -0.0202
     80  CD1       11.2950   25.2100   11.8380 C.ar  241  PHE241     -0.0042
     81  CD2       10.2080   24.7000   13.9060 C.ar  241  PHE241     -0.0042
     82  CE1       10.6900   26.4850   11.8580 C.ar  241  PHE241     -0.0003
     83  CE2        9.6310   25.9830   13.9540 C.ar  241  PHE241     -0.0003
     84  CZ         9.9000   26.8780   12.9420 C.ar  241  PHE241     -0.0000
     85  N         14.8560   21.5770   14.1030 N.am  242  GLU242     -0.1979
     86  CA        15.7320   20.4360   14.4540 C.3   242  GLU242      0.1602
     87  C         16.2610   20.5290   15.9020 C.2   242  GLU242      0.2287
     88  O         16.9880   19.6890   16.3480 O.2   242  GLU242     -0.2864
     89  CB        16.9320   20.3680   13.4810 C.3   242  GLU242      0.0415
     90  CG        16.5930   20.1330   12.0250 C.3   242  GLU242      0.1163
     91  CD        16.3620   18.6520   11.6790 C.2   242  GLU242      0.3649
     92  OE1       16.6830   17.7740   12.4940 O.co2 242  GLU242     -0.2457
     93  OE2       15.8610   18.3270   10.5670 O.co2 242  GLU242     -0.2457
     94  N         16.8080   17.3180   17.8120 N.3   245  HIS245     -0.1241
     95  CA        16.9220   16.2950   16.7960 C.3   245  HIS245      0.1621
     96  C         18.3110   15.6610   16.5900 C.2   245  HIS245      0.2264
     97  O         18.3920   14.5370   16.1430 O.2   245  HIS245     -0.2867
     98  CB        16.4070   16.8580   15.4720 C.3   245  HIS245      0.0745
     99  CG        14.9020   16.9560   15.4350 C.ar  245  HIS245      0.0817
    100  ND1       14.1840   17.7120   16.3450 N.ar  245  HIS245     -0.2268
    101  CD2       13.9910   16.3220   14.6680 C.ar  245  HIS245      0.1154
    102  CE1       12.8930   17.5630   16.1060 C.ar  245  HIS245      0.1986
    103  NE2       12.7460   16.7220   15.0970 N.ar  245  HIS245     -0.2212
    104  N          9.2980    9.2310   17.7600 N.3   261  HIS261     -0.1241
    105  CA        10.0810   10.3580   17.3380 C.3   261  HIS261      0.1621
    106  C         10.0210   11.5050   18.3590 C.2   261  HIS261      0.2264
    107  O         11.0620   12.0570   18.7360 O.2   261  HIS261     -0.2867
    108  CB         9.5890   10.8480   15.9570 C.3   261  HIS261      0.0745
    109  CG        10.3760   12.0000   15.4230 C.ar  261  HIS261      0.0817
    110  ND1       11.6760   11.8700   14.9720 N.ar  261  HIS261     -0.2268
    111  CD2       10.0690   13.3120   15.3160 C.ar  261  HIS261      0.1154
    112  CE1       12.1270   13.0550   14.5980 C.ar  261  HIS261      0.1986
    113  NE2       11.1570   13.9430   14.7680 N.ar  261  HIS261     -0.2212
    114  N         21.2520   11.9540    7.3610 N.3   321  LYS321     -0.1245
    115  CA        19.9240   12.5060    7.0500 C.3   321  LYS321      0.1561
    116  C         19.8430   14.0260    7.2760 C.2   321  LYS321      0.2260
    117  O         18.8670   14.6670    6.8700 O.2   321  LYS321     -0.2867
    118  CB        18.8140   11.7640    7.8120 C.3   321  LYS321      0.0271
    119  CG        18.5000   12.3090    9.2200 C.3   321  LYS321      0.0035
    120  CD        16.9880   12.3450    9.4920 C.3   321  LYS321      0.0206
    121  CE        16.2950   11.1020    8.9730 C.3   321  LYS321      0.1093
    122  NZ        15.0730   10.7550    9.7390 N.3   321  LYS321     -0.1314
@<TRIPOS>BOND
     1    23    22    1
     2    23    24    2
     3    22    21    1
     4    22    25    1
     5    25    26    1
     6    26    27    1
     7    18    17    2
     8    17    16    1
     9    60    59    2
    10    27    28    1
    11    65    66    1
    12    59    58    1
    13    16    15    1
    14    16    19    1
    15    20    19    1
    16    28    29    1
    17    66    67    1
    18    66    69    1
    19    73    71   ar
    20    67    68    2
    21    70    69    1
    22    70    71    1
    23    58    61    1
    24    58    57    1
    25    71    72   ar
    26   117   116    2
    27    12    11    2
    28    61    62    1
    29   115   116    1
    30   115   114    1
    31   115   118    1
    32   118   119    1
    33    11    10    1
    34    63    62    1
    35    62    64    1
    36    14    13    1
    37   121   120    1
    38   121   122    1
    39    10    13    1
    40    10     9    1
    41   119   120    1
    42     4     3    2
    43    51    50    2
    44     9     3   am
    45    56    55    1
    46    93    91   ar
    47    50    49    1
    48     3     2    1
    49    55    54    1
    50    52    49    1
    51    52    53    1
    52    91    90    1
    53    91    92   ar
    54    80    82   ar
    55    80    79   ar
    56    82    84   ar
    57    49    48    1
    58    90    89    1
    59    54    53    1
    60     2     1    1
    61     2     5    1
    62     7     6   ar
    63    79    78    1
    64    79    81   ar
    65    78    75    1
    66    84    83   ar
    67     6     5    1
    68     6     8   ar
    69    89    86    1
    70    74    75    1
    71    81    83   ar
    72    75    76    1
    73    85    76   am
    74    85    86    1
    75    76    77    2
    76    86    87    1
    77   112   113   ar
    78   112   110   ar
    79   101   103   ar
    80   101    99   ar
    81   113   111   ar
    82   110   109   ar
    83   103   102   ar
    84   111   109   ar
    85   109   108    1
    86    99    98    1
    87    99   100   ar
    88    98    95    1
    89    47    46    1
    90    87    88    2
    91   108   105    1
    92    37    36   ar
    93   102   100   ar
    94    97    96    2
    95    96    95    1
    96    36    38   ar
    97    36    35    1
    98    46    45    1
    99    95    94    1
   100    35    34    1
   101   105   104    1
   102   105   106    1
   103    34    31    1
   104    45    44    1
   105   106   107    2
   106    33    32    2
   107    31    32    1
   108    31    30    1
   109    44    43    1
   110    43    40    1
   111    41    42    2
   112    41    40    1
   113    40    39    1
