@<TRIPOS>MOLECULE
tmp/2grxB00.pdb
 104 94 0 0 0
SMALL
GASTEIGER

@<TRIPOS>ATOM
      1  N         21.9550   23.9270   37.5810 N.3   284  PHE284     -0.1241
      2  CA        22.9890   24.1030   38.5770 C.3   284  PHE284      0.1605
      3  C         22.4330   25.0540   39.6040 C.2   284  PHE284      0.2264
      4  O         21.7530   26.0140   39.2520 O.2   284  PHE284     -0.2867
      5  CB        24.2160   24.7260   37.9700 C.3   284  PHE284      0.0534
      6  CG        25.1850   25.1830   38.9800 C.ar  284  PHE284     -0.0203
      7  CD1       26.0690   24.2980   39.5530 C.ar  284  PHE284     -0.0042
      8  CD2       25.1780   26.4930   39.4070 C.ar  284  PHE284     -0.0042
      9  CE1       26.9320   24.7070   40.5390 C.ar  284  PHE284     -0.0003
     10  CE2       26.0370   26.9200   40.3960 C.ar  284  PHE284     -0.0003
     11  CZ        26.9180   26.0250   40.9650 C.ar  284  PHE284     -0.0000
     12  N         23.1640   26.9700   43.6550 N.3   286  GLU286     -0.1245
     13  CA        23.9150   27.2320   44.8590 C.3   286  GLU286      0.1567
     14  C         22.8780   27.6930   45.8850 C.2   286  GLU286      0.2260
     15  O         22.0590   28.5770   45.5990 O.2   286  GLU286     -0.2867
     16  CB        24.9420   28.3310   44.5880 C.3   286  GLU286      0.0388
     17  CG        25.7660   28.7460   45.7830 C.3   286  GLU286      0.1160
     18  CD        26.8640   29.7220   45.4130 C.2   286  GLU286      0.3649
     19  OE1       27.8170   29.3110   44.7200 O.co2 286  GLU286     -0.2457
     20  OE2       26.7710   30.9010   45.8110 O.co2 286  GLU286     -0.2457
     21  N         26.4080   26.1480   52.8230 N.3   333  LYS333     -0.1245
     22  CA        26.4450   26.5710   51.4300 C.3   333  LYS333      0.1561
     23  C         26.5790   25.2880   50.6380 C.2   333  LYS333      0.2260
     24  O         27.2620   24.3650   51.0730 O.2   333  LYS333     -0.2867
     25  CB        27.6670   27.4640   51.1920 C.3   333  LYS333      0.0271
     26  CG        27.8620   27.9820   49.7770 C.3   333  LYS333      0.0035
     27  CD        29.1980   28.7240   49.7050 C.3   333  LYS333      0.0206
     28  CE        29.3700   29.5060   48.4080 C.3   333  LYS333      0.1093
     29  NZ        30.5440   30.4340   48.4590 N.3   333  LYS333     -0.1314
     30  N         26.3500   23.5060   46.3660 N.3   335  GLN335     -0.1245
     31  CA        26.1020   23.6160   44.9420 C.3   335  GLN335      0.1566
     32  C         25.5550   22.2700   44.4880 C.2   335  GLN335      0.2260
     33  O         25.8000   21.2530   45.1180 O.2   335  GLN335     -0.2867
     34  CB        27.3750   23.9930   44.1680 C.3   335  GLN335      0.0367
     35  CG        28.7070   23.7070   44.8500 C.3   335  GLN335      0.0905
     36  CD        29.0150   24.6750   45.9740 C.2   335  GLN335      0.2608
     37  OE1       28.4610   25.7700   46.0210 O.2   335  GLN335     -0.2717
     38  NE2       29.9150   24.2820   46.8790 N.am  335  GLN335     -0.0878
     39  N         25.7970   15.7200   40.7940 N.3   364  ARG364     -0.1245
     40  CA        26.8800   15.9580   41.7270 C.3   364  ARG364      0.1563
     41  C         26.4310   17.0140   42.7230 C.2   364  ARG364      0.2260
     42  O         25.7680   17.9790   42.3450 O.2   364  ARG364     -0.2867
     43  CB        28.1180   16.4770   41.0120 C.3   364  ARG364      0.0307
     44  CG        29.1170   17.0710   41.9780 C.3   364  ARG364      0.0489
     45  CD        29.8940   18.1720   41.3410 C.3   364  ARG364      0.2205
     46  NE        30.1620   19.2480   42.2850 N.pl3 364  ARG364     -0.0865
     47  CZ        30.1060   20.5370   41.9520 C.cat 364  ARG364      0.5346
     48  NH1       29.7870   20.8960   40.7000 N.pl3 364  ARG364      0.1354
     49  NH2       30.3740   21.4750   42.8590 N.pl3 364  ARG364      0.1354
     50  N         27.4890   19.1300   46.6930 N.3   366  ARG366     -0.1245
     51  CA        28.4110   19.3710   47.7790 C.3   366  ARG366      0.1563
     52  C         27.8140   20.3770   48.7160 C.2   366  ARG366      0.2260
     53  O         27.3200   21.4080   48.2770 O.2   366  ARG366     -0.2867
     54  CB        29.7150   19.9640   47.2560 C.3   366  ARG366      0.0307
     55  CG        30.3160   21.0270   48.2080 C.3   366  ARG366      0.0489
     56  CD        31.3600   21.8930   47.5320 C.3   366  ARG366      0.2205
     57  NE        32.4490   21.0770   47.0340 N.pl3 366  ARG366     -0.0865
     58  CZ        33.7170   21.2680   47.3550 C.cat 366  ARG366      0.5346
     59  NH1       34.0320   22.2600   48.1760 N.pl3 366  ARG366      0.1354
     60  NH2       34.6630   20.4660   46.8620 N.pl3 366  ARG366      0.1354
     61  N         28.8590   22.4300   52.2640 N.3   368  ASP368     -0.1239
     62  CA        29.8980   22.7190   53.2380 C.3   368  ASP368      0.1674
     63  C         29.2180   23.1890   54.4990 C.2   368  ASP368      0.2266
     64  O         28.4530   24.1450   54.4840 O.2   368  ASP368     -0.2867
     65  CB        30.8650   23.7950   52.7200 C.3   368  ASP368      0.1410
     66  CG        31.9940   24.0920   53.7060 C.2   368  ASP368      0.3668
     67  OD1       33.0370   24.6360   53.2850 O.co2 368  ASP368     -0.2456
     68  OD2       31.8360   23.7920   54.9080 O.co2 368  ASP368     -0.2456
     69  N         31.9950   18.4820   55.4420 N.3   403  LEU403     -0.1245
     70  CA        31.9700   18.7610   54.0130 C.3   403  LEU403      0.1561
     71  C         31.5430   17.5060   53.2950 C.2   403  LEU403      0.2260
     72  O         32.3490   16.6070   53.1090 O.2   403  LEU403     -0.2867
     73  CB        33.3450   19.1690   53.5020 C.3   403  LEU403      0.0270
     74  CG        33.3360   19.5210   52.0110 C.3   403  LEU403      0.0019
     75  CD1       34.0600   20.8300   51.8090 C.3   403  LEU403      0.0001
     76  CD2       33.9890   18.4290   51.1940 C.3   403  LEU403      0.0001
     77  N         30.1240   15.2890   50.0330 N.3   405  LYS405     -0.1245
     78  CA        30.1480   15.2070   48.5810 C.3   405  LYS405      0.1561
     79  C         29.2600   14.0340   48.1520 C.2   405  LYS405      0.2260
     80  O         29.3120   12.9550   48.7360 O.2   405  LYS405     -0.2867
     81  CB        31.5740   14.9740   48.0710 C.3   405  LYS405      0.0271
     82  CG        32.4930   16.1740   48.1690 C.3   405  LYS405      0.0035
     83  CD        33.6990   15.9910   47.2560 C.3   405  LYS405      0.0206
     84  CE        34.3670   17.3260   46.8880 C.3   405  LYS405      0.1093
     85  NZ        35.3440   17.1830   45.7570 N.3   405  LYS405     -0.1314
     86  N         33.9890   14.5600   54.7060 N.3   438  LEU438     -0.1245
     87  CA        35.1550   15.0340   55.4190 C.3   438  LEU438      0.1561
     88  C         34.7580   15.6270   56.7560 C.2   438  LEU438      0.2260
     89  O         33.9380   16.5420   56.8150 O.2   438  LEU438     -0.2867
     90  CB        35.8780   16.1080   54.6080 C.3   438  LEU438      0.0270
     91  CG        37.1600   16.6680   55.2340 C.3   438  LEU438      0.0019
     92  CD1       38.1270   15.5300   55.5400 C.3   438  LEU438      0.0001
     93  CD2       37.7960   17.6640   54.2830 C.3   438  LEU438      0.0001
     94  N         35.9560   17.8370   59.0420 N.3   440  ARG440     -0.1245
     95  CA        36.9400   18.8890   59.2480 C.3   440  ARG440      0.1563
     96  C         37.4850   18.9620   60.6820 C.2   440  ARG440      0.2260
     97  O         38.6900   19.1310   60.8860 O.2   440  ARG440     -0.2867
     98  CB        36.3360   20.2450   58.8510 C.3   440  ARG440      0.0307
     99  CG        37.3470   21.2790   58.3560 C.3   440  ARG440      0.0489
    100  CD        37.4250   21.3150   56.8300 C.3   440  ARG440      0.2205
    101  NE        36.1730   21.7890   56.2400 N.pl3 440  ARG440     -0.0865
    102  CZ        36.0040   22.0640   54.9510 C.cat 440  ARG440      0.5346
    103  NH1       37.0060   21.9160   54.0980 N.pl3 440  ARG440      0.1354
    104  NH2       34.8290   22.4930   54.5150 N.pl3 440  ARG440      0.1354
@<TRIPOS>BOND
     1     1     2    1
     2     5     2    1
     3     5     6    1
     4     2     3    1
     5     6     8   ar
     6     6     7   ar
     7     4     3    2
     8     8    10   ar
     9     7     9   ar
    10    10    11   ar
    11     9    11   ar
    12    48    47    1
    13    39    40    1
    14    43    40    1
    15    43    44    1
    16    45    44    1
    17    45    46    1
    18    40    41    1
    19    47    46    2
    20    47    49    1
    21    42    41    2
    22    12    13    1
    23    34    35    1
    24    34    31    1
    25    32    31    1
    26    32    33    2
    27    16    13    1
    28    16    17    1
    29    19    18   ar
    30    35    36    1
    31    13    14    1
    32    31    30    1
    33    18    17    1
    34    18    20   ar
    35    15    14    2
    36    85    84    1
    37    36    37    2
    38    36    38   am
    39    50    51    1
    40    60    58    1
    41    84    83    1
    42    57    58    2
    43    57    56    1
    44    54    51    1
    45    54    55    1
    46    83    82    1
    47    58    59    1
    48    56    55    1
    49    51    52    1
    50    81    82    1
    51    81    78    1
    52    79    78    1
    53    79    80    2
    54    53    52    2
    55    28    29    1
    56    28    27    1
    57    78    77    1
    58    27    26    1
    59    26    25    1
    60    23    24    2
    61    23    22    1
    62    25    22    1
    63    76    74    1
    64    22    21    1
    65    75    74    1
    66    74    73    1
    67    61    62    1
    68    65    62    1
    69    65    66    1
    70    72    71    2
    71    62    63    1
    72    67    66   ar
    73    71    70    1
    74    73    70    1
    75    66    68   ar
    76    70    69    1
    77   103   102    1
    78    93    91    1
    79    64    63    2
    80   104   102    1
    81    90    91    1
    82    90    87    1
    83    86    87    1
    84   102   101    2
    85    91    92    1
    86    87    88    1
    87   101   100    1
    88    88    89    2
    89   100    99    1
    90    99    98    1
    91    98    95    1
    92    94    95    1
    93    95    96    1
    94    96    97    2
