@<TRIPOS>MOLECULE
tmp/2gryA00.pdb
 125 120 0 0 0
SMALL
GASTEIGER

@<TRIPOS>ATOM
      1  N         22.5560  -17.4110   15.7640 N.3    30  ARG30      -0.1231
      2  CA        23.0930  -16.2450   15.1070 C.3    30  ARG30       0.1694
      3  C         24.1580  -16.6100   14.0600 C.2    30  ARG30       0.2592
      4  O         25.2370  -17.1480   14.3990 O.2    30  ARG30      -0.2718
      5  CB        23.7050  -15.3150   16.1220 C.3    30  ARG30       0.0321
      6  CG        24.0510  -14.0180   15.5150 C.3    30  ARG30       0.0489
      7  CD        25.0650  -13.2340   16.3200 C.3    30  ARG30       0.2205
      8  NE        25.1680  -11.9120   15.7070 N.pl3  30  ARG30      -0.0865
      9  CZ        25.6740  -10.8350   16.2940 C.cat  30  ARG30       0.5346
     10  NH1       26.1960  -10.8840   17.5370 N.pl3  30  ARG30       0.1354
     11  NH2       25.6910   -9.7060   15.6140 N.pl3  30  ARG30       0.1354
     12  N         23.8470  -16.3000   12.8040 N.am   31  LYS31      -0.1966
     13  CA        24.7590  -16.4840   11.6820 C.3    31  LYS31       0.1728
     14  C         25.6790  -15.2610   11.5850 C.2    31  LYS31       0.2616
     15  O         25.2130  -14.1230   11.6550 O.2    31  LYS31      -0.2715
     16  CB        23.9460  -16.6230   10.3890 C.3    31  LYS31       0.0311
     17  CG        24.7560  -16.7990    9.1080 C.3    31  LYS31       0.0038
     18  CD        23.8520  -16.7200    7.8740 C.3    31  LYS31       0.0206
     19  CE        24.6880  -16.6500    6.6050 C.3    31  LYS31       0.1093
     20  NZ        23.8790  -16.2590    5.4010 N.3    31  LYS31      -0.1314
     21  N         26.9720  -15.4940   11.4020 N.am   32  ARG32      -0.1964
     22  CA        27.8730  -14.4030   11.1160 C.3    32  ARG32       0.1714
     23  C         28.1150  -14.3400    9.5960 C.2    32  ARG32       0.2458
     24  O         27.9500  -15.3520    8.8970 O.2    32  ARG32      -0.2730
     25  CB        29.1900  -14.5290   11.8850 C.3    32  ARG32       0.0347
     26  CG        30.0930  -15.6610   11.4600 C.3    32  ARG32       0.0492
     27  CD        31.5720  -15.3560   11.7500 C.3    32  ARG32       0.2205
     28  NE        32.4220  -16.4840   11.3550 N.pl3  32  ARG32      -0.0865
     29  CZ        32.8650  -16.7290   10.1130 C.cat  32  ARG32       0.5346
     30  NH1       32.5800  -15.9090    9.0990 N.pl3  32  ARG32       0.1354
     31  NH2       33.6360  -17.7860    9.8890 N.pl3  32  ARG32       0.1354
     32  N         28.4920  -13.1550    9.0810 N.am   33  PRO33      -0.2727
     33  CA        28.7820  -13.0960    7.6480 C.3    33  PRO33       0.1402
     34  C         30.0820  -13.7920    7.2250 C.2    33  PRO33       0.2269
     35  O         30.9460  -14.0360    8.0380 O.2    33  PRO33      -0.2865
     36  CB        28.8410  -11.5810    7.3560 C.3    33  PRO33       0.0296
     37  CG        29.0810  -10.9250    8.6710 C.3    33  PRO33       0.0237
     38  CD        28.6300  -11.8460    9.7530 C.3    33  PRO33       0.0939
     39  N         33.6400  -13.6680    6.1130 N.3    35  ASN35      -0.1240
     40  CA        34.6390  -12.5980    6.2780 C.3    35  ASN35       0.1653
     41  C         35.3600  -12.2280    4.9620 C.2    35  ASN35       0.2266
     42  O         35.1790  -12.8890    3.9190 O.2    35  ASN35      -0.2867
     43  CB        35.6320  -12.9020    7.4080 C.3    35  ASN35       0.1155
     44  CG        36.4270  -14.1570    7.1670 C.2    35  ASN35       0.2627
     45  OD1       37.1180  -14.2800    6.1570 O.2    35  ASN35      -0.2716
     46  ND2       36.3510  -15.0960    8.1030 N.am   35  ASN35      -0.0877
     47  N         22.9820  -12.6290    9.1620 N.3    83  ASP83      -0.1239
     48  CA        24.3580  -12.2020    9.2030 C.3    83  ASP83       0.1674
     49  C         24.5800  -10.6670    9.2030 C.2    83  ASP83       0.2266
     50  O         25.7430  -10.1860    9.1940 O.2    83  ASP83      -0.2867
     51  CB        25.1860  -12.9220    8.1250 C.3    83  ASP83       0.1410
     52  CG        24.9090  -12.4320    6.7100 C.2    83  ASP83       0.3668
     53  OD1       24.2710  -11.3790    6.5170 O.co2  83  ASP83      -0.2456
     54  OD2       25.3540  -13.1200    5.7630 O.co2  83  ASP83      -0.2456
     55  N         22.3410   -8.7770   11.4050 N.3    85  ALA85      -0.1245
     56  CA        21.8630   -8.3830   12.7550 C.3    85  ALA85       0.1562
     57  C         23.0460   -7.8860   13.5760 C.2    85  ALA85       0.2260
     58  O         24.0050   -8.6270   13.7410 O.2    85  ALA85      -0.2867
     59  CB        21.1750   -9.5460   13.4720 C.3    85  ALA85       0.0290
     60  N         31.1680  -23.0570   17.3620 N.3   115  GLN115     -0.1231
     61  CA        32.5250  -23.3750   16.9780 C.3   115  GLN115      0.1698
     62  C         33.4660  -22.1740   17.0950 C.2   115  GLN115      0.2593
     63  O         33.0370  -21.0130   17.0530 O.2   115  GLN115     -0.2718
     64  CB        32.5830  -23.9830   15.5680 C.3   115  GLN115      0.0381
     65  CG        32.6330  -22.9920   14.4200 C.3   115  GLN115      0.0905
     66  CD        32.6750  -23.6710   13.0540 C.2   115  GLN115      0.2608
     67  OE1       33.7310  -24.0610   12.5750 O.2   115  GLN115     -0.2717
     68  NE2       31.5190  -23.8040   12.4300 N.am  115  GLN115     -0.0878
     69  N         34.7510  -22.4590   17.2400 N.am  116  THR116     -0.1939
     70  CA        35.7510  -21.4280   17.1910 C.3   116  THR116      0.2028
     71  C         35.6360  -20.6750   15.8620 C.2   116  THR116      0.2643
     72  O         35.5870  -21.2730   14.7960 O.2   116  THR116     -0.2714
     73  CB        37.1820  -22.0110   17.4020 C.3   116  THR116      0.1808
     74  OG1       37.2270  -22.6750   18.6670 O.3   116  THR116     -0.2208
     75  CG2       38.2590  -20.8910   17.3890 C.3   116  THR116      0.0379
     76  N         35.5610  -19.3510   15.9560 N.am  117  GLY117     -0.1939
     77  CA        35.5190  -18.5030   14.7950 C.3   117  GLY117      0.2014
     78  C         34.1160  -18.0570   14.4260 C.2   117  GLY117      0.2640
     79  O         33.9660  -17.2230   13.5200 O.2   117  GLY117     -0.2714
     80  N         33.0870  -18.5840   15.1180 N.am  118  SER118     -0.1935
     81  CA        31.6910  -18.3730   14.6880 C.3   118  SER118      0.2055
     82  C         31.0470  -17.0910   15.2060 C.2   118  SER118      0.2644
     83  O         29.9890  -16.6850   14.7290 O.2   118  SER118     -0.2714
     84  CB        30.8260  -19.5840   15.0500 C.3   118  SER118      0.2130
     85  OG        30.8540  -19.8100   16.4460 O.3   118  SER118     -0.2179
     86  N         31.6560  -16.4750   16.2030 N.am  119  GLY119     -0.1939
     87  CA        31.1900  -15.1610   16.6960 C.3   119  GLY119      0.2014
     88  C         30.7510  -15.0300   18.1430 C.2   119  GLY119      0.2639
     89  O         30.0720  -14.0600   18.4810 O.2   119  GLY119     -0.2714
     90  N         31.1430  -15.9820   18.9990 N.am  120  LYS120     -0.1963
     91  CA        30.7950  -15.9540   20.4470 C.3   120  LYS120      0.1728
     92  C         31.3450  -14.7310   21.1450 C.2   120  LYS120      0.2617
     93  O         30.5990  -14.0320   21.8450 O.2   120  LYS120     -0.2715
     94  CB        31.2940  -17.1910   21.2080 C.3   120  LYS120      0.0311
     95  CG        30.7390  -18.5380   20.7650 C.3   120  LYS120      0.0038
     96  CD        31.4340  -19.6700   21.5410 C.3   120  LYS120      0.0206
     97  CE        32.9290  -19.7380   21.2650 C.3   120  LYS120      0.1093
     98  NZ        33.2210  -20.4640   20.0280 N.3   120  LYS120     -0.1314
     99  N         32.6490  -14.4810   20.9530 N.am  121  THR121     -0.1937
    100  CA        33.3280  -13.3520   21.5590 C.3   121  THR121      0.2028
    101  C         32.8470  -12.0240   20.9530 C.2   121  THR121      0.2642
    102  O         32.6430  -11.0610   21.6780 O.2   121  THR121     -0.2714
    103  CB        34.8500  -13.4760   21.4340 C.3   121  THR121      0.1808
    104  OG1       35.2840  -14.6820   22.0810 O.3   121  THR121     -0.2208
    105  CG2       35.5390  -12.3050   22.0810 C.3   121  THR121      0.0379
    106  N         32.6690  -11.9760   19.6360 N.am  122  HIS122     -0.1973
    107  CA        32.0550  -10.8270   19.0190 C.3   122  HIS122      0.1656
    108  C         30.7170  -10.5010   19.7040 C.2   122  HIS122      0.2291
    109  O         30.3560   -9.3650   19.8690 O.2   122  HIS122     -0.2864
    110  CB        31.8620  -11.0710   17.5030 C.3   122  HIS122      0.0771
    111  CG        31.1660   -9.9540   16.8000 C.ar  122  HIS122      0.0820
    112  ND1       31.8360   -8.8640   16.2950 N.ar  122  HIS122     -0.2267
    113  CD2       29.8520   -9.7460   16.5380 C.ar  122  HIS122      0.1154
    114  CE1       30.9650   -8.0270   15.7520 C.ar  122  HIS122      0.1986
    115  NE2       29.7550   -8.5370   15.8910 N.ar  122  HIS122     -0.2212
    116  N         32.7480   -8.3760   22.3020 N.3   126  GLY126     -0.1225
    117  CA        33.3210   -7.5290   21.2440 C.3   126  GLY126      0.1811
    118  C         34.4970   -8.2810   20.5920 C.2   126  GLY126      0.2280
    119  O         35.2070   -7.7540   19.7120 O.2   126  GLY126     -0.2866
    120  N         40.0560  -19.9620   22.9360 N.3   217  SER217     -0.1217
    121  CA        39.1120  -20.8520   22.2430 C.3   217  SER217      0.1889
    122  C         38.8990  -22.1620   22.9780 C.2   217  SER217      0.2288
    123  O         37.9840  -22.9240   22.6430 O.2   217  SER217     -0.2866
    124  CB        39.5840  -21.1410   20.8100 C.3   217  SER217      0.2089
    125  OG        40.7320  -21.9530   20.8040 O.3   217  SER217     -0.2183
@<TRIPOS>BOND
     1    42    41    2
     2    41    40    1
     3    20    19    1
     4    54    52   ar
     5    39    40    1
     6    45    44    2
     7    40    43    1
     8    53    52   ar
     9    19    18    1
    10    52    51    1
    11    44    43    1
    12    44    46   am
    13    34    33    1
    14    34    35    2
    15    36    33    1
    16    36    37    1
    17    33    32    1
    18    18    17    1
    19    51    48    1
    20    37    38    1
    21    24    23    2
    22    32    23   am
    23    32    38    1
    24    30    29    1
    25    17    16    1
    26    47    48    1
    27    50    49    2
    28    48    49    1
    29    23    22    1
    30    31    29    1
    31    29    28    2
    32    16    13    1
    33    22    21    1
    34    22    25    1
    35    28    27    1
    36    21    14   am
    37    55    56    1
    38    26    27    1
    39    26    25    1
    40    14    15    2
    41    14    13    1
    42    13    12    1
    43    68    66   am
    44    67    66    2
    45    56    59    1
    46    56    57    1
    47    12     3   am
    48    66    65    1
    49    79    78    2
    50    57    58    2
    51     3     4    2
    52     3     2    1
    53    65    64    1
    54    78    77    1
    55    78    80   am
    56    81    84    1
    57    81    80    1
    58    81    82    1
    59    83    82    2
    60    77    76    1
    61    72    71    2
    62    84    85    1
    63     2     1    1
    64     2     5    1
    65    82    86   am
    66     6     5    1
    67     6     7    1
    68    64    61    1
    69    11     9    1
    70     8     9    2
    71     8     7    1
    72   114   115   ar
    73   114   112   ar
    74    71    76   am
    75    71    70    1
    76   115   113   ar
    77    86    87    1
    78     9    10    1
    79   112   111   ar
    80   113   111   ar
    81    87    88    1
    82   111   110    1
    83    61    62    1
    84    61    60    1
    85    63    62    2
    86    62    69   am
    87    70    69    1
    88    70    73    1
    89    75    73    1
    90    73    74    1
    91   110   107    1
    92    88    89    2
    93    88    90   am
    94    90    91    1
    95   107   106    1
    96   107   108    1
    97   106   101   am
    98   108   109    2
    99   119   118    2
   100    98    97    1
   101    91    92    1
   102    91    94    1
   103   118   117    1
   104    95    94    1
   105    95    96    1
   106   125   124    1
   107   124   121    1
   108   101   100    1
   109   101   102    2
   110    99    92   am
   111    99   100    1
   112    92    93    2
   113   117   116    1
   114    97    96    1
   115   103   100    1
   116   103   104    1
   117   103   105    1
   118   121   120    1
   119   121   122    1
   120   123   122    2
