@<TRIPOS>MOLECULE
tmp/2gs6A01.pdb
 162 150 0 0 0
SMALL
GASTEIGER

@<TRIPOS>ATOM
      1  N        147.3800   18.0860   44.7540 N.3    26  LEU26      -0.1231
      2  CA       146.3940   17.4960   45.6410 C.3    26  LEU26       0.1693
      3  C        145.0040   17.6930   45.0440 C.2    26  LEU26       0.2592
      4  O        144.0890   16.9110   45.3000 O.2    26  LEU26      -0.2718
      5  CB       146.4850   18.1580   47.0200 C.3    26  LEU26       0.0284
      6  CG       146.6470   17.2590   48.2500 C.3    26  LEU26       0.0019
      7  CD1      147.7900   16.2760   48.0440 C.3    26  LEU26       0.0001
      8  CD2      146.9020   18.1300   49.4720 C.3    26  LEU26       0.0001
      9  N        144.8520   18.7420   44.2400 N.am   27  GLY27      -0.1957
     10  CA       143.5680   19.0060   43.6240 C.3    27  GLY27       0.1869
     11  C        143.4490   20.3930   43.0300 C.2    27  GLY27       0.2309
     12  O        144.1050   21.3320   43.4800 O.2    27  GLY27      -0.2863
     13  N        137.7450   24.6720   40.6490 N.3    30  ALA30      -0.1231
     14  CA       137.1130   25.9720   40.8640 C.3    30  ALA30       0.1694
     15  C        137.6360   26.6400   42.1370 C.2    30  ALA30       0.2592
     16  O        136.8740   26.8950   43.0710 O.2    30  ALA30      -0.2718
     17  CB       135.5960   25.8060   40.9440 C.3    30  ALA30       0.0304
     18  N        138.9350   26.9220   42.1630 N.am   31  PHE31      -0.1976
     19  CA       139.5660   27.5550   43.3180 C.3    31  PHE31       0.1639
     20  C        141.0540   27.7360   43.0710 C.2    31  PHE31       0.2290
     21  O        141.7620   28.3350   43.8820 O.2    31  PHE31      -0.2864
     22  CB       139.3620   26.6980   44.5570 C.3    31  PHE31       0.0560
     23  CG       139.8990   25.2810   44.5470 C.ar   31  PHE31      -0.0200
     24  CD1      141.2730   25.0100   44.7570 C.ar   31  PHE31      -0.0042
     25  CD2      139.1100   24.1720   44.2670 C.ar   31  PHE31      -0.0042
     26  CE1      141.7600   23.7390   44.7640 C.ar   31  PHE31      -0.0003
     27  CE2      139.5850   22.8890   44.3150 C.ar   31  PHE31      -0.0003
     28  CZ       140.9330   22.6580   44.5400 C.ar   31  PHE31      -0.0000
     29  N        145.8530   23.1790   44.4270 N.3    34  VAL34      -0.1245
     30  CA       146.3560   22.9000   45.7630 C.3    34  VAL34       0.1561
     31  C        147.3470   21.7480   45.6670 C.2    34  VAL34       0.2260
     32  O        146.9760   20.6120   45.3800 O.2    34  VAL34      -0.2867
     33  CB       145.2270   22.5250   46.7380 C.3    34  VAL34       0.0252
     34  CG1      145.8180   22.1530   48.0960 C.3    34  VAL34       0.0019
     35  CG2      144.2660   23.6910   46.8880 C.3    34  VAL34       0.0019
     36  N        150.2970   22.5110   52.6690 N.3    51  ALA51      -0.1245
     37  CA       149.4260   22.5350   51.5060 C.3    51  ALA51       0.1562
     38  C        149.6550   23.9020   50.8820 C.2    51  ALA51       0.2260
     39  O        149.6190   24.9300   51.5710 O.2    51  ALA51      -0.2867
     40  CB       147.9770   22.3770   51.9170 C.3    51  ALA51       0.0290
     41  N        148.3570   26.5850   48.1200 N.3    53  LYS53      -0.1245
     42  CA       147.2690   26.9930   47.2390 C.3    53  LYS53       0.1561
     43  C        147.8070   28.1000   46.3330 C.2    53  LYS53       0.2260
     44  O        148.1210   29.1950   46.8060 O.2    53  LYS53      -0.2867
     45  CB       146.0940   27.5160   48.0590 C.3    53  LYS53       0.0271
     46  CG       144.8180   27.6760   47.2610 C.3    53  LYS53       0.0035
     47  CD       143.6620   28.0190   48.1700 C.3    53  LYS53       0.0206
     48  CE       142.3390   27.9130   47.4510 C.3    53  LYS53       0.1093
     49  NZ       141.1930   28.1490   48.3860 N.3    53  LYS53      -0.1314
     50  N        141.9690   25.5790   61.0390 N.3    80  CYS80      -0.1235
     51  CA       143.1770   25.3600   60.2490 C.3    80  CYS80       0.1677
     52  C        144.1840   26.4730   60.4500 C.2    80  CYS80       0.2270
     53  O        143.8320   27.6510   60.4200 O.2    80  CYS80      -0.2867
     54  CB       142.8440   25.2440   58.7670 C.3    80  CYS80       0.0956
     55  SG       142.0390   23.6920   58.3560 S.3    80  CYS80      -0.0801
     56  N        149.4230   26.4330   54.2260 N.3    95  THR95      -0.1203
     57  CA       148.7280   25.9470   55.4150 C.3    95  THR95       0.1994
     58  C        149.1760   24.5530   55.8460 C.2    95  THR95       0.2618
     59  O        149.8420   23.8300   55.0970 O.2    95  THR95      -0.2717
     60  CB       147.2150   25.9070   55.1770 C.3    95  THR95       0.1784
     61  OG1      146.9560   25.2840   53.9140 O.3    95  THR95      -0.2211
     62  CG2      146.6300   27.3140   55.1680 C.3    95  THR95       0.0376
     63  N        148.8070   24.1830   57.0660 N.am   96  GLN96      -0.1965
     64  CA       149.1550   22.8760   57.6010 C.3    96  GLN96       0.1733
     65  C        148.4810   21.8170   56.7390 C.2    96  GLN96       0.2616
     66  O        147.2940   21.9360   56.4110 O.2    96  GLN96      -0.2715
     67  CB       148.6790   22.7640   59.0490 C.3    96  GLN96       0.0408
     68  CG       148.7060   21.3610   59.6300 C.3    96  GLN96       0.0908
     69  CD       148.0880   21.3070   61.0260 C.2    96  GLN96       0.2608
     70  OE1      147.0600   21.9500   61.2950 O.2    96  GLN96      -0.2717
     71  NE2      148.7010   20.5300   61.9170 N.am   96  GLN96      -0.0878
     72  N        149.2400   20.7910   56.3640 N.am   97  LEU97      -0.1963
     73  CA       148.7030   19.7190   55.5410 C.3    97  LEU97       0.1728
     74  C        147.7850   18.8050   56.3420 C.2    97  LEU97       0.2616
     75  O        148.1470   18.3200   57.4070 O.2    97  LEU97      -0.2715
     76  CB       149.8360   18.8780   54.9430 C.3    97  LEU97       0.0311
     77  CG       149.3920   17.7420   54.0020 C.3    97  LEU97       0.0022
     78  CD1      148.7130   18.3460   52.7630 C.3    97  LEU97       0.0001
     79  CD2      150.5940   16.8940   53.5970 C.3    97  LEU97       0.0001
     80  N        146.5880   18.5800   55.8200 N.am   98  MET98      -0.1977
     81  CA       145.6270   17.7010   56.4550 C.3    98  MET98       0.1605
     82  C        145.5980   16.4710   55.5320 C.2    98  MET98       0.2287
     83  O        144.8430   16.4120   54.5540 O.2    98  MET98      -0.2864
     84  CB       144.2820   18.4090   56.5190 C.3    98  MET98       0.0413
     85  CG       144.3740   19.7810   57.1790 C.3    98  MET98       0.0598
     86  SD       144.8420   19.7450   58.9490 S.3    98  MET98      -0.1393
     87  CE       143.1730   19.6300   59.6850 C.3    98  MET98       0.0692
     88  N        142.3360   14.9440   53.8010 N.3   101  GLY101     -0.1210
     89  CA       141.3980   15.8060   53.0980 C.3   101  GLY101      0.1956
     90  C        140.1790   16.3200   53.8430 C.2   101  GLY101      0.2612
     91  O        140.1390   16.3300   55.0740 O.2   101  GLY101     -0.2717
     92  N        139.1740   16.7580   53.0880 N.am  102  CYS102     -0.1970
     93  CA       137.9580   17.2890   53.6930 C.3   102  CYS102      0.1712
     94  C        137.0480   16.1740   54.2060 C.2   102  CYS102      0.2296
     95  O        136.9050   15.1240   53.5770 O.2   102  CYS102     -0.2864
     96  CB       137.1940   18.1590   52.6940 C.3   102  CYS102      0.0983
     97  SG       136.2930   17.2520   51.4320 S.3   102  CYS102     -0.0798
     98  N        134.4670   14.1910   51.8610 N.3   105  ASP105     -0.1239
     99  CA       135.0440   13.1220   51.0580 C.3   105  ASP105      0.1674
    100  C        135.4580   11.9470   51.9260 C.2   105  ASP105      0.2266
    101  O        135.3310   10.7950   51.5280 O.2   105  ASP105     -0.2867
    102  CB       136.2650   13.6330   50.2910 C.3   105  ASP105      0.1410
    103  CG       135.9020   14.6180   49.1990 C.2   105  ASP105      0.3668
    104  OD1      136.7940   15.3740   48.7670 O.co2 105  ASP105     -0.2456
    105  OD2      134.7320   14.6390   48.7580 O.co2 105  ASP105     -0.2456
    106  N        130.2940   30.0540   55.6510 N.3   142  ASP142     -0.1239
    107  CA       130.3910   28.9600   54.6950 C.3   142  ASP142      0.1674
    108  C        130.7370   27.6110   55.3240 C.2   142  ASP142      0.2266
    109  O        131.4640   26.8000   54.7450 O.2   142  ASP142     -0.2867
    110  CB       131.3980   29.3160   53.6030 C.3   142  ASP142      0.1410
    111  CG       131.2660   28.4250   52.3800 C.2   142  ASP142      0.3668
    112  OD1      130.1890   27.8050   52.2070 O.co2 142  ASP142     -0.2456
    113  OD2      132.2290   28.3570   51.5860 O.co2 142  ASP142     -0.2456
    114  N        132.3930   20.0050   53.4660 N.3   146  ARG146     -0.1231
    115  CA       133.4840   20.2030   52.5100 C.3   146  ARG146      0.1694
    116  C        134.5080   21.1830   53.0490 C.2   146  ARG146      0.2592
    117  O        135.6390   21.2160   52.5770 O.2   146  ARG146     -0.2718
    118  CB       132.9650   20.7320   51.1670 C.3   146  ARG146      0.0321
    119  CG       132.3750   22.1220   51.2600 C.3   146  ARG146      0.0489
    120  CD       131.9320   22.6780   49.9130 C.3   146  ARG146      0.2205
    121  NE       131.2200   23.9400   50.1000 N.pl3 146  ARG146     -0.0865
    122  CZ       129.9520   24.0400   50.5000 C.cat 146  ARG146      0.5346
    123  NH1      129.2360   22.9450   50.7450 N.pl3 146  ARG146      0.1354
    124  NH2      129.4030   25.2390   50.6830 N.pl3 146  ARG146      0.1354
    125  N        134.1170   21.9880   54.0340 N.am  147  ASN147     -0.1974
    126  CA       135.0540   22.9560   54.5920 C.3   147  ASN147      0.1688
    127  C        135.5680   22.5950   55.9760 C.2   147  ASN147      0.2292
    128  O        135.8390   23.4600   56.8150 O.2   147  ASN147     -0.2864
    129  CB       134.4450   24.3610   54.5750 C.3   147  ASN147      0.1181
    130  CG       134.3110   24.9080   53.1600 C.2   147  ASN147      0.2629
    131  OD1      134.9790   24.4300   52.2380 O.2   147  ASN147     -0.2716
    132  ND2      133.4580   25.9160   52.9820 N.am  147  ASN147     -0.0877
    133  N        138.5470   20.0190   57.4960 N.3   149  LEU149     -0.1245
    134  CA       139.6540   19.1240   57.1460 C.3   149  LEU149      0.1561
    135  C        139.9490   18.0780   58.2170 C.2   149  LEU149      0.2260
    136  O        139.6210   18.2630   59.4010 O.2   149  LEU149     -0.2867
    137  CB       140.9160   19.9390   56.8570 C.3   149  LEU149      0.0270
    138  CG       140.7040   21.0080   55.7810 C.3   149  LEU149      0.0019
    139  CD1      142.0160   21.7400   55.5390 C.3   149  LEU149      0.0001
    140  CD2      140.1990   20.3600   54.4920 C.3   149  LEU149      0.0001
    141  N        138.0760   25.0540   57.9810 N.3   159  THR159     -0.1203
    142  CA       138.8910   25.7590   57.0010 C.3   159  THR159      0.1994
    143  C        138.0350   26.6300   56.0830 C.2   159  THR159      0.2617
    144  O        136.8540   26.8850   56.3660 O.2   159  THR159     -0.2717
    145  CB       139.6760   24.7530   56.1310 C.3   159  THR159      0.1784
    146  OG1      140.6690   25.4430   55.3640 O.3   159  THR159     -0.2211
    147  CG2      138.7220   24.0090   55.1870 C.3   159  THR159      0.0376
    148  N        138.6500   27.0730   54.9860 N.am  160  ASP160     -0.1973
    149  CA       137.9970   27.8960   53.9770 C.3   160  ASP160      0.1709
    150  C        137.3310   29.1540   54.5570 C.2   160  ASP160      0.2293
    151  O        136.1260   29.1750   54.8130 O.2   160  ASP160     -0.2864
    152  CB       136.9680   27.0470   53.2300 C.3   160  ASP160      0.1436
    153  CG       136.5550   27.6560   51.9060 C.2   160  ASP160      0.3671
    154  OD1      136.2680   28.8710   51.8700 O.co2 160  ASP160     -0.2456
    155  OD2      136.5070   26.9160   50.9000 O.co2 160  ASP160     -0.2456
    156  N        126.5010   29.5020   48.8270 N.3   182  PRO182     -0.2116
    157  CA       125.9060   28.1590   48.8950 C.3   182  PRO182      0.1372
    158  C        124.5480   28.1300   49.5990 C.2   182  PRO182      0.2244
    159  O        124.4700   27.9990   50.8160 O.2   182  PRO182     -0.2868
    160  CB       126.9720   27.3600   49.6320 C.3   182  PRO182      0.0268
    161  CG       127.4850   28.3720   50.6170 C.3   182  PRO182      0.0207
    162  CD       127.6230   29.6290   49.7760 C.3   182  PRO182      0.0892
@<TRIPOS>BOND
     1    13    14    1
     2    14    17    1
     3    14    15    1
     4    15    18   am
     5    15    16    2
     6    18    19    1
     7    11    12    2
     8    11    10    1
     9    20    19    1
    10    20    21    2
    11    19    22    1
    12    10     9    1
    13     9     3   am
    14    25    27   ar
    15    25    23   ar
    16    27    28   ar
    17    29    30    1
    18    28    26   ar
    19    23    22    1
    20    23    24   ar
    21     1     2    1
    22    24    26   ar
    23     3     4    2
    24     3     2    1
    25    32    31    2
    26     2     5    1
    27    31    30    1
    28    30    33    1
    29    43    44    2
    30    43    42    1
    31    33    35    1
    32    33    34    1
    33     5     6    1
    34    42    45    1
    35    42    41    1
    36    46    45    1
    37    46    47    1
    38    48    47    1
    39    48    49    1
    40     7     6    1
    41     6     8    1
    42   105   103   ar
    43   104   103   ar
    44   156   157    1
    45   156   162    1
    46   157   158    1
    47   157   160    1
    48   103   102    1
    49   158   159    2
    50   160   161    1
    51   162   161    1
    52   120   121    1
    53   120   119    1
    54   121   122    2
    55   102    99    1
    56   122   124    1
    57   122   123    1
    58    38    37    1
    59    38    39    2
    60   155   153   ar
    61    99    98    1
    62    99   100    1
    63   118   119    1
    64   118   115    1
    65    97    96    1
    66    37    40    1
    67    37    36    1
    68   101   100    2
    69   113   111   ar
    70   154   153   ar
    71   153   152    1
    72   112   111   ar
    73   131   130    2
    74   111   110    1
    75   115   116    1
    76   115   114    1
    77   117   116    2
    78    96    93    1
    79    78    77    1
    80   132   130   am
    81   116   125   am
    82    92    93    1
    83    92    90   am
    84    89    88    1
    85    89    90    1
    86   130   129    1
    87   152   149    1
    88    95    94    2
    89    79    77    1
    90   110   107    1
    91    93    94    1
    92    90    91    2
    93    61    60    1
    94   149   150    1
    95   149   148    1
    96    77    76    1
    97   125   126    1
    98    56    57    1
    99   140   138    1
   100    83    82    2
   101   150   151    2
   102   129   126    1
   103   126   127    1
   104   107   108    1
   105   107   106    1
   106   109   108    2
   107    76    73    1
   108   148   143   am
   109    59    58    2
   110    62    60    1
   111    60    57    1
   112   147   145    1
   113   146   145    1
   114    57    58    1
   115    82    81    1
   116   139   138    1
   117    73    74    1
   118    73    72    1
   119   138   137    1
   120    80    74   am
   121    80    81    1
   122    58    63   am
   123   127   128    2
   124   143   144    2
   125   143   142    1
   126   145   142    1
   127    74    75    2
   128    72    65   am
   129    66    65    2
   130    81    84    1
   131    84    85    1
   132    65    64    1
   133   137   134    1
   134   142   141    1
   135    63    64    1
   136   134   133    1
   137   134   135    1
   138    85    86    1
   139    64    67    1
   140   135   136    2
   141    55    54    1
   142    54    51    1
   143    86    87    1
   144    67    68    1
   145    68    69    1
   146    51    52    1
   147    51    50    1
   148    53    52    2
   149    69    70    2
   150    69    71   am
