@<TRIPOS>MOLECULE
tmp/2gs6A00.pdb
 123 121 0 0 0
SMALL
GASTEIGER

@<TRIPOS>ATOM
      1  N        132.3930   20.0050   53.4660 N.3   146  ARG146     -0.1245
      2  CA       133.4840   20.2030   52.5100 C.3   146  ARG146      0.1563
      3  C        134.5080   21.1830   53.0490 C.2   146  ARG146      0.2260
      4  O        135.6390   21.2160   52.5770 O.2   146  ARG146     -0.2867
      5  CB       132.9650   20.7320   51.1670 C.3   146  ARG146      0.0307
      6  CG       132.3750   22.1220   51.2600 C.3   146  ARG146      0.0489
      7  CD       131.9320   22.6780   49.9130 C.3   146  ARG146      0.2205
      8  NE       131.2200   23.9400   50.1000 N.pl3 146  ARG146     -0.0865
      9  CZ       129.9520   24.0400   50.5000 C.cat 146  ARG146      0.5346
     10  NH1      129.2360   22.9450   50.7450 N.pl3 146  ARG146      0.1354
     11  NH2      129.4030   25.2390   50.6830 N.pl3 146  ARG146      0.1354
     12  N        125.8650   40.9560   47.5150 N.3   178  GLY178     -0.1210
     13  CA       125.5510   40.0720   46.4110 C.3   178  GLY178      0.1956
     14  C        126.6390   39.0760   46.0860 C.2   178  GLY178      0.2612
     15  O        127.7060   39.0770   46.7010 O.2   178  GLY178     -0.2717
     16  N        126.3620   38.2190   45.1120 N.am  179  GLY179     -0.1942
     17  CA       127.3350   37.2220   44.7180 C.3   179  GLY179      0.2014
     18  C        126.9100   35.8110   45.0700 C.2   179  GLY179      0.2639
     19  O        125.9860   35.5990   45.8620 O.2   179  GLY179     -0.2714
     20  N        127.5950   34.8430   44.4700 N.am  180  LYS180     -0.1963
     21  CA       127.3160   33.4370   44.7020 C.3   180  LYS180      0.1728
     22  C        127.5870   33.0220   46.1500 C.2   180  LYS180      0.2616
     23  O        128.6500   33.3050   46.7110 O.2   180  LYS180     -0.2715
     24  CB       128.1630   32.5730   43.7620 C.3   180  LYS180      0.0311
     25  CG       127.6700   32.4770   42.3170 C.3   180  LYS180      0.0038
     26  CD       127.6490   33.8250   41.6050 C.3   180  LYS180      0.0206
     27  CE       127.5050   33.6590   40.0900 C.3   180  LYS180      0.1093
     28  NZ       126.3100   32.8540   39.7030 N.3   180  LYS180     -0.1314
     29  N        126.6050   32.3550   46.7440 N.am  181  VAL181     -0.1964
     30  CA       126.6960   31.8450   48.1080 C.3   181  VAL181      0.1712
     31  C        125.9740   30.5020   48.1000 C.2   181  VAL181      0.2458
     32  O        124.9510   30.3570   47.4390 O.2   181  VAL181     -0.2730
     33  CB       126.0280   32.7960   49.1160 C.3   181  VAL181      0.0289
     34  CG1      127.0190   33.8570   49.5490 C.3   181  VAL181      0.0023
     35  CG2      124.8030   33.4450   48.4880 C.3   181  VAL181      0.0023
     36  N        126.5010   29.5020   48.8270 N.am  182  PRO182     -0.2716
     37  CA       125.9060   28.1590   48.8950 C.3   182  PRO182      0.1536
     38  C        124.5480   28.1300   49.5990 C.2   182  PRO182      0.2598
     39  O        124.4700   27.9990   50.8160 O.2   182  PRO182     -0.2715
     40  CB       126.9720   27.3600   49.6320 C.3   182  PRO182      0.0310
     41  CG       127.4850   28.3720   50.6170 C.3   182  PRO182      0.0237
     42  CD       127.6230   29.6290   49.7760 C.3   182  PRO182      0.0939
     43  N        123.4830   28.2370   48.8130 N.am  183  ILE183     -0.1964
     44  CA       122.1140   28.2610   49.3260 C.3   183  ILE183      0.1727
     45  C        121.6850   27.1380   50.2740 C.2   183  ILE183      0.2616
     46  O        121.1370   27.4000   51.3390 O.2   183  ILE183     -0.2715
     47  CB       121.1030   28.3010   48.1590 C.3   183  ILE183      0.0290
     48  CG1      121.3560   29.5440   47.3030 C.3   183  ILE183      0.0022
     49  CG2      119.6760   28.3120   48.6970 C.3   183  ILE183      0.0023
     50  CD1      121.1240   30.8620   48.0400 C.3   183  ILE183      0.0001
     51  N        121.9300   25.8930   49.8900 N.am  184  LYS184     -0.1963
     52  CA       121.5160   24.7620   50.7100 C.3   184  LYS184      0.1728
     53  C        122.1230   24.6680   52.1150 C.2   184  LYS184      0.2616
     54  O        121.6870   23.8650   52.9390 O.2   184  LYS184     -0.2715
     55  CB       121.7340   23.4690   49.9220 C.3   184  LYS184      0.0311
     56  CG       120.8380   23.4210   48.6910 C.3   184  LYS184      0.0038
     57  CD       120.9030   22.1070   47.9450 C.3   184  LYS184      0.0206
     58  CE       120.0410   22.1880   46.6860 C.3   184  LYS184      0.1093
     59  NZ       120.1600   20.9810   45.8170 N.3   184  LYS184     -0.1314
     60  N        123.1070   25.5060   52.3980 N.am  185  TRP185     -0.1960
     61  CA       123.7240   25.5100   53.7110 C.3   185  TRP185      0.1771
     62  C        123.4010   26.7840   54.4780 C.2   185  TRP185      0.2619
     63  O        123.7650   26.9150   55.6470 O.2   185  TRP185     -0.2715
     64  CB       125.2360   25.3860   53.5750 C.3   185  TRP185      0.0590
     65  CG       125.6980   24.0010   53.3910 C.ar  185  TRP185      0.0006
     66  CD1      126.1130   23.1420   54.3620 C.ar  185  TRP185      0.0946
     67  CD2      125.7680   23.2820   52.1580 C.ar  185  TRP185      0.0152
     68  NE1      126.4370   21.9280   53.8120 N.ar  185  TRP185     -0.2442
     69  CE2      126.2340   21.9830   52.4600 C.ar  185  TRP185      0.0810
     70  CE3      125.4810   23.6080   50.8240 C.ar  185  TRP185      0.0012
     71  CZ2      126.4200   21.0070   51.4790 C.ar  185  TRP185      0.0191
     72  CZ3      125.6680   22.6320   49.8450 C.ar  185  TRP185      0.0001
     73  CH2      126.1330   21.3480   50.1810 C.ar  185  TRP185      0.0015
     74  N        122.7200   27.7300   53.8360 N.am  186  MET186     -0.1977
     75  CA       122.4240   28.9760   54.5250 C.3   186  MET186      0.1605
     76  C        121.0650   29.0710   55.1730 C.2   186  MET186      0.2287
     77  O        120.1190   28.4040   54.7750 O.2   186  MET186     -0.2864
     78  CB       122.6560   30.1810   53.6020 C.3   186  MET186      0.0413
     79  CG       122.7400   29.8440   52.1370 C.3   186  MET186      0.0598
     80  SD       123.4940   31.1550   51.1400 S.3   186  MET186     -0.1393
     81  CE       122.3620   32.5720   51.5450 C.3   186  MET186      0.0692
     82  N        119.5050   34.5570   55.7670 N.3   190  SER190     -0.1202
     83  CA       120.5750   34.8370   54.8370 C.3   190  SER190      0.2020
     84  C        120.0760   34.8590   53.4020 C.2   190  SER190      0.2618
     85  O        120.4360   35.7490   52.6270 O.2   190  SER190     -0.2717
     86  CB       121.6890   33.7980   55.0030 C.3   190  SER190      0.2103
     87  OG       122.1630   33.7730   56.3420 O.3   190  SER190     -0.2182
     88  N        119.2410   33.8880   53.0500 N.am  191  ILE191     -0.1979
     89  CA       118.7110   33.8070   51.6950 C.3   191  ILE191      0.1595
     90  C        117.8020   34.9930   51.3800 C.2   191  ILE191      0.2287
     91  O        117.9540   35.6500   50.3530 O.2   191  ILE191     -0.2864
     92  CB       117.8960   32.5140   51.4830 C.3   191  ILE191      0.0276
     93  CG1      118.7960   31.2830   51.6260 C.3   191  ILE191      0.0022
     94  CG2      117.2540   32.5280   50.1090 C.3   191  ILE191      0.0022
     95  CD1      118.0420   29.9540   51.5130 C.3   191  ILE191      0.0001
     96  N        120.0810   38.5420   53.1340 N.3   194  ARG194     -0.1245
     97  CA       121.5380   38.6580   53.1050 C.3   194  ARG194      0.1563
     98  C        122.1020   39.0100   54.4740 C.2   194  ARG194      0.2260
     99  O        123.1250   39.6890   54.5730 O.2   194  ARG194     -0.2867
    100  CB       121.9610   39.7200   52.0890 C.3   194  ARG194      0.0307
    101  CG       121.5330   39.3910   50.6860 C.3   194  ARG194      0.0489
    102  CD       121.6840   40.5650   49.7430 C.3   194  ARG194      0.2205
    103  NE       121.1840   40.2220   48.4130 N.pl3 194  ARG194     -0.0865
    104  CZ       121.0240   41.0890   47.4200 C.cat 194  ARG194      0.5346
    105  NH1      120.5610   40.6730   46.2470 N.pl3 194  ARG194      0.1354
    106  NH2      121.3220   42.3690   47.6040 N.pl3 194  ARG194      0.1354
    107  N        123.8080   37.8380   57.9800 N.3   196  TYR196     -0.1241
    108  CA       124.6320   36.7550   58.5020 C.3   196  TYR196      0.1605
    109  C        125.0080   37.0090   59.9540 C.2   196  TYR196      0.2264
    110  O        125.3930   38.1130   60.3200 O.2   196  TYR196     -0.2867
    111  CB       125.8920   36.6070   57.6550 C.3   196  TYR196      0.0534
    112  CG       125.6240   36.1270   56.2470 C.ar  196  TYR196     -0.0201
    113  CD1      125.8940   34.8070   55.8770 C.ar  196  TYR196     -0.0009
    114  CD2      125.1200   36.9970   55.2750 C.ar  196  TYR196     -0.0009
    115  CE1      125.6800   34.3660   54.5740 C.ar  196  TYR196      0.0417
    116  CE2      124.9010   36.5700   53.9740 C.ar  196  TYR196      0.0417
    117  CZ       125.1870   35.2560   53.6260 C.ar  196  TYR196      0.1957
    118  OH       125.0250   34.8440   52.3230 O.3   196  TYR196     -0.2866
    119  N        118.2730   25.0610   43.6440 N.3   225  ALA225     -0.1245
    120  CA       118.6460   26.0710   44.6290 C.3   225  ALA225      0.1562
    121  C        117.5940   27.1670   44.7560 C.2   225  ALA225      0.2260
    122  O        117.3210   27.6560   45.8540 O.2   225  ALA225     -0.2867
    123  CB       119.9860   26.6800   44.2590 C.3   225  ALA225      0.0290
@<TRIPOS>BOND
     1    28    27    1
     2    27    26    1
     3    26    25    1
     4    25    24    1
     5   119   120    1
     6    24    21    1
     7   123   120    1
     8    20    21    1
     9    20    18   am
    10   120   121    1
    11    21    22    1
    12    17    18    1
    13    17    16    1
    14   121   122    2
    15    18    19    2
    16    16    14   am
    17    59    58    1
    18    14    13    1
    19    14    15    2
    20    22    23    2
    21    22    29   am
    22   105   104    1
    23    13    12    1
    24    58    57    1
    25    29    30    1
    26    48    50    1
    27    48    47    1
    28   104   106    1
    29   104   103    2
    30    32    31    2
    31    57    56    1
    32    31    30    1
    33    31    36   am
    34    30    33    1
    35    47    49    1
    36    47    44    1
    37   103   102    1
    38    35    33    1
    39    56    55    1
    40    43    44    1
    41    43    38   am
    42    36    37    1
    43    36    42    1
    44    37    38    1
    45    37    40    1
    46    33    34    1
    47    44    45    1
    48    38    39    2
    49    40    41    1
    50   102   101    1
    51    42    41    1
    52    72    73   ar
    53    72    70   ar
    54    51    45   am
    55    51    52    1
    56     7     8    1
    57     7     6    1
    58    55    52    1
    59     8     9    2
    60    94    92    1
    61    73    71   ar
    62    45    46    2
    63    91    90    2
    64     9    11    1
    65     9    10    1
    66   101   100    1
    67    52    53    1
    68    70    67   ar
    69    80    81    1
    70    80    79    1
    71     5     6    1
    72     5     2    1
    73    90    89    1
    74    71    69   ar
    75    92    93    1
    76    92    89    1
    77    95    93    1
    78    89    88    1
    79   100    97    1
    80    53    60   am
    81    53    54    2
    82    79    78    1
    83    67    69   ar
    84    67    65   ar
    85   118   117    1
    86    60    61    1
    87    69    68   ar
    88     2     3    1
    89     2     1    1
    90     4     3    2
    91    85    84    2
    92    88    84   am
    93    97    96    1
    94    97    98    1
    95    65    64    1
    96    65    66   ar
    97    84    83    1
    98    64    61    1
    99    78    75    1
   100   117   116   ar
   101   117   115   ar
   102    61    62    1
   103    68    66   ar
   104    74    62   am
   105    74    75    1
   106   116   114   ar
   107    98    99    2
   108    62    63    2
   109    75    76    1
   110   115   113   ar
   111    77    76    2
   112    83    86    1
   113    83    82    1
   114    86    87    1
   115   114   112   ar
   116   113   112   ar
   117   112   111    1
   118   111   108    1
   119   107   108    1
   120   108   109    1
   121   109   110    2
