@<TRIPOS>MOLECULE
tmp/2gs9B00.pdb
 225 228 0 0 0
SMALL
GASTEIGER

@<TRIPOS>ATOM
      1  N         55.1970    6.6480   10.8190 N.3     1  ASP1       -0.1225
      2  CA        56.6500    6.9310   11.0340 C.3     1  ASP1        0.1790
      3  C         57.2150    7.9290   10.0250 C.2     1  ASP1        0.2440
      4  O         57.4260    7.6090    8.8520 O.2     1  ASP1       -0.2733
      5  CB        57.4670    5.6370   10.9760 C.3     1  ASP1        0.1423
      6  CG        58.9640    5.8890   11.0590 C.2     1  ASP1        0.3668
      7  OD1       59.3730    6.7790   11.8410 O.co2   1  ASP1       -0.2456
      8  OD2       59.7290    5.1930   10.3510 O.co2   1  ASP1       -0.2456
      9  N         57.4890    9.1570   10.4850 N.am    2  PRO2       -0.2718
     10  CA        58.0300   10.2300    9.6470 C.3     2  PRO2        0.1535
     11  C         59.3570    9.9010    8.9640 C.2     2  PRO2        0.2598
     12  O         59.6090   10.3500    7.8430 O.2     2  PRO2       -0.2715
     13  CB        58.1390   11.4020   10.6250 C.3     2  PRO2        0.0310
     14  CG        58.3830   10.7220   11.9370 C.3     2  PRO2        0.0237
     15  CD        57.4010    9.5860   11.8930 C.3     2  PRO2        0.0939
     16  N         60.1930    9.1140    9.6410 N.am    3  PHE3       -0.1974
     17  CA        61.5000    8.7290    9.1070 C.3     3  PHE3        0.1639
     18  C         61.4250    7.4670    8.2490 C.2     3  PHE3        0.2290
     19  O         62.4520    6.9460    7.8160 O.2     3  PHE3       -0.2864
     20  CB        62.5000    8.4970   10.2460 C.3     3  PHE3        0.0560
     21  CG        62.6400    9.6640   11.1850 C.ar    3  PHE3       -0.0200
     22  CD1       61.6560    9.9380   12.1310 C.ar    3  PHE3       -0.0042
     23  CD2       63.7560   10.4950   11.1230 C.ar    3  PHE3       -0.0042
     24  CE1       61.7830   11.0240   13.0040 C.ar    3  PHE3       -0.0003
     25  CE2       63.8890   11.5810   11.9910 C.ar    3  PHE3       -0.0003
     26  CZ        62.9010   11.8440   12.9310 C.ar    3  PHE3       -0.0000
     27  N         69.5350    9.8190    5.2990 N.3    10  TYR10      -0.1241
     28  CA        69.6040   10.5900    6.5330 C.3    10  TYR10       0.1605
     29  C         70.9480   11.2780    6.7650 C.2    10  TYR10       0.2264
     30  O         70.9930   12.4740    7.0270 O.2    10  TYR10      -0.2867
     31  CB        69.2830    9.6960    7.7340 C.3    10  TYR10       0.0534
     32  CG        69.1570   10.4530    9.0370 C.ar   10  TYR10      -0.0201
     33  CD1       68.0060   11.1860    9.3360 C.ar   10  TYR10      -0.0009
     34  CD2       70.1970   10.4490    9.9690 C.ar   10  TYR10      -0.0009
     35  CE1       67.8920   11.8990   10.5420 C.ar   10  TYR10       0.0417
     36  CE2       70.0980   11.1560   11.1730 C.ar   10  TYR10       0.0417
     37  CZ        68.9440   11.8760   11.4540 C.ar   10  TYR10       0.1957
     38  OH        68.8470   12.5570   12.6500 O.3    10  TYR10      -0.2866
     39  N         75.5570   15.4400    5.8650 N.3    14  TYR14      -0.1241
     40  CA        76.8330   15.5120    6.5730 C.3    14  TYR14       0.1605
     41  C         78.0220   15.4500    5.6210 C.2    14  TYR14       0.2264
     42  O         79.1630   15.6740    6.0280 O.2    14  TYR14      -0.2867
     43  CB        76.9370   14.3780    7.5950 C.3    14  TYR14       0.0534
     44  CG        75.8910   14.4340    8.6810 C.ar   14  TYR14      -0.0201
     45  CD1       75.4930   15.6550    9.2270 C.ar   14  TYR14      -0.0009
     46  CD2       75.3180   13.2680    9.1840 C.ar   14  TYR14      -0.0009
     47  CE1       74.5490   15.7170   10.2470 C.ar   14  TYR14       0.0417
     48  CE2       74.3720   13.3150   10.2100 C.ar   14  TYR14       0.0417
     49  CZ        73.9910   14.5470   10.7370 C.ar   14  TYR14       0.1957
     50  OH        73.0550   14.6090   11.7490 O.3    14  TYR14      -0.2866
     51  N         70.9920    5.1330   24.2990 N.3    42  GLU42      -0.1231
     52  CA        70.5520    6.2520   23.4770 C.3    42  GLU42       0.1699
     53  C         69.1330    5.9960   23.0140 C.2    42  GLU42       0.2592
     54  O         68.8820    5.0560   22.2570 O.2    42  GLU42      -0.2718
     55  CB        71.4210    6.4920   22.2400 C.3    42  GLU42       0.0402
     56  CG        71.0570    7.8490   21.5980 C.3    42  GLU42       0.1161
     57  CD        71.7110    8.1220   20.2490 C.2    42  GLU42       0.3649
     58  OE1       72.8800    7.7380   20.0520 O.co2  42  GLU42      -0.2457
     59  OE2       71.0560    8.7500   19.3860 O.co2  42  GLU42      -0.2457
     60  N         68.2100    6.8330   23.4810 N.am   43  VAL43      -0.1966
     61  CA        66.8020    6.7190   23.1090 C.3    43  VAL43       0.1727
     62  C         66.6030    7.4490   21.7860 C.2    43  VAL43       0.2617
     63  O         66.8990    8.6340   21.6690 O.2    43  VAL43      -0.2715
     64  CB        65.9030    7.3330   24.1860 C.3    43  VAL43       0.0290
     65  CG1       64.4440    7.1490   23.8180 C.3    43  VAL43       0.0023
     66  CG2       66.2070    6.6860   25.5180 C.3    43  VAL43       0.0023
     67  N         66.1030    6.7320   20.7890 N.am   44  GLY44      -0.1940
     68  CA        65.9270    7.3280   19.4800 C.3    44  GLY44       0.2014
     69  C         67.2980    7.3800   18.8280 C.2    44  GLY44       0.2639
     70  O         67.6820    8.3920   18.2510 O.2    44  GLY44      -0.2714
     71  N         68.0390    6.2800   18.9310 N.am   45  ALA45      -0.1963
     72  CA        69.3880    6.1810   18.3740 C.3    45  ALA45       0.1728
     73  C         69.4600    6.2680   16.8420 C.2    45  ALA45       0.2617
     74  O         70.5470    6.3890   16.2750 O.2    45  ALA45      -0.2715
     75  CB        70.0460    4.8920   18.8550 C.3    45  ALA45       0.0334
     76  N         68.3090    6.1890   16.1820 N.am   46  GLY46      -0.1940
     77  CA        68.2670    6.2940   14.7340 C.3    46  GLY46       0.2014
     78  C         69.2290    5.4320   13.9360 C.2    46  GLY46       0.2639
     79  O         69.1570    4.2070   13.9860 O.2    46  GLY46      -0.2714
     80  N         70.1260    6.0670   13.1880 N.am   47  THR47      -0.1950
     81  CA        71.0830    5.3370   12.3660 C.3    47  THR47       0.1897
     82  C         72.4090    5.0850   13.0830 C.2    47  THR47       0.2313
     83  O         73.4360    4.8450   12.4460 O.2    47  THR47      -0.2863
     84  CB        71.3490    6.0750   11.0220 C.3    47  THR47       0.1794
     85  OG1       72.0540    7.2990   11.2650 O.3    47  THR47      -0.2208
     86  CG2       70.0330    6.3950   10.3230 C.3    47  THR47       0.0378
     87  N         74.5060    6.9890   14.4580 N.3    49  TYR49      -0.1227
     88  CA        75.5780    7.9430   14.2080 C.3    49  TYR49       0.1736
     89  C         76.4040    8.2330   15.4690 C.2    49  TYR49       0.2595
     90  O         77.6310    8.3220   15.4130 O.2    49  TYR49      -0.2718
     91  CB        75.0060    9.2600   13.6690 C.3    49  TYR49       0.0548
     92  CG        76.0800   10.1980   13.1720 C.ar   49  TYR49      -0.0200
     93  CD1       76.5340   10.1300   11.8480 C.ar   49  TYR49      -0.0009
     94  CD2       76.7060   11.0970   14.0400 C.ar   49  TYR49      -0.0009
     95  CE1       77.5890   10.9270   11.3990 C.ar   49  TYR49       0.0417
     96  CE2       77.7680   11.9000   13.6010 C.ar   49  TYR49       0.0417
     97  CZ        78.2040   11.8050   12.2780 C.ar   49  TYR49       0.1957
     98  OH        79.2710   12.5630   11.8470 O.3    49  TYR49      -0.2866
     99  N         75.7300    8.3900   16.6030 N.am   50  TRP50      -0.1976
    100  CA        76.4290    8.6810   17.8500 C.3    50  TRP50       0.1640
    101  C         76.9240    7.4210   18.5590 C.2    50  TRP50       0.2290
    102  O         78.0010    7.4210   19.1650 O.2    50  TRP50      -0.2864
    103  CB        75.5190    9.4880   18.7770 C.3    50  TRP50       0.0576
    104  CG        75.1330   10.8040   18.1940 C.ar   50  TRP50       0.0006
    105  CD1       73.8680   11.2580   17.9650 C.ar   50  TRP50       0.0946
    106  CD2       76.0190   11.8330   17.7350 C.ar   50  TRP50       0.0152
    107  NE1       73.9080   12.5080   17.3910 N.ar   50  TRP50      -0.2442
    108  CE2       75.2150   12.8850   17.2370 C.ar   50  TRP50       0.0810
    109  CE3       77.4120   11.9680   17.6930 C.ar   50  TRP50       0.0012
    110  CZ2       75.7590   14.0600   16.7010 C.ar   50  TRP50       0.0191
    111  CZ3       77.9570   13.1400   17.1580 C.ar   50  TRP50       0.0001
    112  CH2       77.1280   14.1690   16.6700 C.ar   50  TRP50       0.0015
    113  N         67.9240    2.3870   21.6370 N.3    62  VAL62      -0.1231
    114  CA        66.4850    2.1600   21.5710 C.3    62  VAL62       0.1692
    115  C         65.9530    2.9660   20.3860 C.2    62  VAL62       0.2592
    116  O         66.1260    4.1830   20.3290 O.2    62  VAL62      -0.2718
    117  CB        65.7950    2.6150   22.8660 C.3    62  VAL62       0.0266
    118  CG1       64.2970    2.7370   22.6510 C.3    62  VAL62       0.0020
    119  CG2       66.0830    1.6160   23.9610 C.3    62  VAL62       0.0020
    120  N         65.3160    2.2860   19.4380 N.am   63  GLU63      -0.1966
    121  CA        64.7940    2.9440   18.2460 C.3    63  GLU63       0.1718
    122  C         63.5080    2.2810   17.7510 C.2    63  GLU63       0.2458
    123  O         63.5220    1.1420   17.2840 O.2    63  GLU63      -0.2730
    124  CB        65.8740    2.9240   17.1540 C.3    63  GLU63       0.0428
    125  CG        65.4570    3.5260   15.8210 C.3    63  GLU63       0.1163
    126  CD        64.7640    4.8710   15.9730 C.2    63  GLU63       0.3649
    127  OE1       65.4130    5.8390   16.4360 O.co2  63  GLU63      -0.2457
    128  OE2       63.5620    4.9470   15.6290 O.co2  63  GLU63      -0.2457
    129  N         62.3750    2.9940   17.8400 N.am   64  PRO64      -0.2716
    130  CA        61.0710    2.4770   17.4070 C.3    64  PRO64       0.1536
    131  C         60.9040    2.3190   15.8960 C.2    64  PRO64       0.2599
    132  O         60.1550    1.4600   15.4400 O.2    64  PRO64      -0.2715
    133  CB        60.0950    3.4920   17.9860 C.3    64  PRO64       0.0310
    134  CG        60.8560    4.7580   17.8420 C.3    64  PRO64       0.0237
    135  CD        62.2420    4.3740   18.3350 C.3    64  PRO64       0.0939
    136  N         61.5880    3.1470   15.1190 N.am   65  SER65      -0.1950
    137  CA        61.4780    3.0500   13.6720 C.3    65  SER65       0.1924
    138  C         62.2590    1.8630   13.1520 C.2    65  SER65       0.2314
    139  O         63.4740    1.7760   13.3570 O.2    65  SER65      -0.2863
    140  CB        62.0060    4.3140   12.9970 C.3    65  SER65       0.2116
    141  OG        62.2120    4.0900   11.6120 O.3    65  SER65      -0.2180
    142  N         61.9320   -0.3760   20.6680 N.3    83  ALA83      -0.1231
    143  CA        60.9320    0.0740   21.6410 C.3    83  ALA83       0.1694
    144  C         60.7930    1.5960   21.6030 C.2    83  ALA83       0.2592
    145  O         61.5060    2.2720   20.8670 O.2    83  ALA83      -0.2718
    146  CB        61.3230   -0.3790   23.0490 C.3    83  ALA83       0.0304
    147  N         59.8720    2.1300   22.3950 N.am   84  TRP84      -0.1962
    148  CA        59.6530    3.5680   22.4480 C.3    84  TRP84       0.1771
    149  C         60.2330    4.1340   23.7300 C.2    84  TRP84       0.2620
    150  O         60.3630    3.4220   24.7230 O.2    84  TRP84      -0.2715
    151  CB        58.1600    3.8740   22.3750 C.3    84  TRP84       0.0590
    152  CG        57.5990    3.7310   20.9990 C.ar   84  TRP84       0.0006
    153  CD1       57.4150    4.7230   20.0810 C.ar   84  TRP84       0.0946
    154  CD2       57.2090    2.5150   20.3570 C.ar   84  TRP84       0.0152
    155  NE1       56.9370    4.2020   18.9050 N.ar   84  TRP84      -0.2442
    156  CE2       56.8010    2.8470   19.0460 C.ar   84  TRP84       0.0810
    157  CE3       57.1680    1.1760   20.7600 C.ar   84  TRP84       0.0012
    158  CZ2       56.3580    1.8890   18.1330 C.ar   84  TRP84       0.0191
    159  CZ3       56.7290    0.2190   19.8500 C.ar   84  TRP84       0.0001
    160  CH2       56.3290    0.5830   18.5490 C.ar   84  TRP84       0.0015
    161  N         60.5810    5.4160   23.7080 N.am   85  GLY85      -0.1940
    162  CA        61.1520    6.0390   24.8860 C.3    85  GLY85       0.2014
    163  C         60.1510    6.1360   26.0170 C.2    85  GLY85       0.2638
    164  O         60.5260    6.2890   27.1820 O.2    85  GLY85      -0.2714
    165  N         58.8700    6.0480   25.6670 N.am   86  GLU86      -0.1977
    166  CA        57.7960    6.1230   26.6480 C.3    86  GLU86       0.1602
    167  C         57.7310    4.8620   27.5060 C.2    86  GLU86       0.2287
    168  O         57.1580    4.8740   28.5960 O.2    86  GLU86      -0.2864
    169  CB        56.4490    6.3210   25.9530 C.3    86  GLU86       0.0415
    170  CG        56.2400    7.6860   25.3230 C.3    86  GLU86       0.1163
    171  CD        56.9900    7.8740   24.0110 C.2    86  GLU86       0.3649
    172  OE1       57.4610    6.8760   23.4160 O.co2  86  GLU86      -0.2457
    173  OE2       57.0900    9.0340   23.5650 O.co2  86  GLU86      -0.2457
    174  N         69.2800   12.8280   21.8060 N.3   101  PHE101     -0.1227
    175  CA        69.7910   13.8190   20.8750 C.3   101  PHE101      0.1736
    176  C         68.7540   14.0610   19.7900 C.2   101  PHE101      0.2596
    177  O         68.4930   13.1840   18.9650 O.2   101  PHE101     -0.2718
    178  CB        71.0830   13.3140   20.2510 C.3   101  PHE101      0.0547
    179  CG        71.9130   14.3890   19.6290 C.ar  101  PHE101     -0.0202
    180  CD1       72.9050   15.0300   20.3680 C.ar  101  PHE101     -0.0042
    181  CD2       71.7290   14.7410   18.2960 C.ar  101  PHE101     -0.0042
    182  CE1       73.7100   16.0050   19.7840 C.ar  101  PHE101     -0.0003
    183  CE2       72.5230   15.7100   17.7030 C.ar  101  PHE101     -0.0003
    184  CZ        73.5180   16.3450   18.4430 C.ar  101  PHE101     -0.0000
    185  N         68.1760   15.2580   19.7990 N.am  102  THR102     -0.1939
    186  CA        67.1430   15.6480   18.8420 C.3   102  THR102      0.2028
    187  C         66.0940   14.5480   18.6900 C.2   102  THR102      0.2642
    188  O         65.6540   14.2280   17.5850 O.2   102  THR102     -0.2714
    189  CB        67.7370   16.0280   17.4430 C.3   102  THR102      0.1808
    190  OG1       68.2800   14.8720   16.8010 O.3   102  THR102     -0.2208
    191  CG2       68.8480   17.0500   17.6020 C.3   102  THR102      0.0379
    192  N         65.7020   13.9740   19.8230 N.am  103  THR103     -0.1950
    193  CA        64.6880   12.9270   19.8490 C.3   103  THR103      0.1897
    194  C         63.3940   13.4640   20.4720 C.2   103  THR103      0.2313
    195  O         62.2940   13.1700   19.9920 O.2   103  THR103     -0.2863
    196  CB        65.1790   11.6920   20.6510 C.3   103  THR103      0.1794
    197  OG1       66.3010   11.1090   19.9790 O.3   103  THR103     -0.2208
    198  CG2       64.0750   10.6390   20.7660 C.3   103  THR103      0.0378
    199  N         60.4020   14.5340   18.5490 N.3   106  PHE106     -0.1227
    200  CA        59.6090   13.5650   17.7990 C.3   106  PHE106      0.1736
    201  C         58.8150   12.5670   18.6330 C.2   106  PHE106      0.2595
    202  O         57.9330   11.8890   18.1080 O.2   106  PHE106     -0.2718
    203  CB        60.5160   12.8130   16.8260 C.3   106  PHE106      0.0547
    204  CG        61.1100   13.6870   15.7710 C.ar  106  PHE106     -0.0202
    205  CD1       60.3320   14.1350   14.7040 C.ar  106  PHE106     -0.0042
    206  CD2       62.4290   14.1200   15.8710 C.ar  106  PHE106     -0.0042
    207  CE1       60.8570   15.0040   13.7550 C.ar  106  PHE106     -0.0003
    208  CE2       62.9660   14.9920   14.9270 C.ar  106  PHE106     -0.0003
    209  CZ        62.1780   15.4360   13.8670 C.ar  106  PHE106     -0.0000
    210  N         59.1120   12.4790   19.9240 N.am  107  VAL107     -0.1966
    211  CA        58.4110   11.5310   20.7800 C.3   107  VAL107      0.1727
    212  C         56.9320   11.8820   20.9520 C.2   107  VAL107      0.2616
    213  O         56.4880   12.9510   20.5420 O.2   107  VAL107     -0.2715
    214  CB        59.0870   11.4320   22.1730 C.3   107  VAL107      0.0290
    215  CG1       60.5510   11.0930   22.0030 C.3   107  VAL107      0.0023
    216  CG2       58.9200   12.7370   22.9480 C.3   107  VAL107      0.0023
    217  N         56.1750   10.9640   21.5430 N.am  108  GLU108     -0.1977
    218  CA        54.7550   11.1650   21.7840 C.3   108  GLU108      0.1602
    219  C         54.5460   12.0040   23.0290 C.2   108  GLU108      0.2287
    220  O         53.8950   13.0420   22.9910 O.2   108  GLU108     -0.2864
    221  CB        54.0560    9.8220   22.0040 C.3   108  GLU108      0.0415
    222  CG        53.8540    8.9800   20.7650 C.3   108  GLU108      0.1163
    223  CD        52.6060    9.3740   19.9840 C.2   108  GLU108      0.3649
    224  OE1       52.5690   10.4910   19.4130 O.co2 108  GLU108     -0.2457
    225  OE2       51.6560    8.5580   19.9490 O.co2 108  GLU108     -0.2457
@<TRIPOS>BOND
     1    27    28    1
     2    41    42    2
     3    41    40    1
     4    39    40    1
     5    28    29    1
     6    28    31    1
     7    40    43    1
     8    29    30    2
     9    43    44    1
    10    31    32    1
    11    19    18    2
    12    12    11    2
    13    18    17    1
    14    44    46   ar
    15    44    45   ar
    16     4     3    2
    17    11    16   am
    18    11    10    1
    19    32    33   ar
    20    32    34   ar
    21    17    16    1
    22    17    20    1
    23    46    48   ar
    24    45    47   ar
    25    33    35   ar
    26    10     9    1
    27    10    13    1
    28    34    36   ar
    29     3     9   am
    30     3     2    1
    31    48    49   ar
    32    20    21    1
    33    47    49   ar
    34    86    84    1
    35     8     6   ar
    36     9    15    1
    37    35    37   ar
    38    13    14    1
    39    49    50    1
    40     1     2    1
    41     5     2    1
    42     5     6    1
    43    84    85    1
    44    84    81    1
    45     6     7   ar
    46    23    21   ar
    47    23    25   ar
    48    36    37   ar
    49    21    22   ar
    50    95    93   ar
    51    95    97   ar
    52    37    38    1
    53   141   140    1
    54    98    97    1
    55    93    92   ar
    56    15    14    1
    57    25    26   ar
    58    22    24   ar
    59    97    96   ar
    60    81    82    1
    61    81    80    1
    62    83    82    2
    63    26    24   ar
    64   140   137    1
    65   138   139    2
    66   138   137    1
    67    92    91    1
    68    92    94   ar
    69    80    78   am
    70    96    94   ar
    71    91    88    1
    72   137   136    1
    73   207   209   ar
    74   207   205   ar
    75   209   208   ar
    76    78    79    2
    77    78    77    1
    78    88    87    1
    79    88    89    1
    80   205   204   ar
    81    77    76    1
    82   208   206   ar
    83   136   131   am
    84    90    89    2
    85   132   131    2
    86    89    99   am
    87   128   126   ar
    88   204   206   ar
    89   204   203    1
    90   125   126    1
    91   125   124    1
    92   131   130    1
    93   126   127   ar
    94    76    73   am
    95    74    73    2
    96    99   100    1
    97   112   110   ar
    98   112   111   ar
    99   110   108   ar
   100   190   189    1
   101   203   200    1
   102    73    72    1
   103   124   121    1
   104   111   109   ar
   105   108   107   ar
   106   108   106   ar
   107   123   122    2
   108   107   105   ar
   109   130   129    1
   110   130   133    1
   111   189   191    1
   112   189   186    1
   113   188   187    2
   114   109   106   ar
   115   183   181   ar
   116   183   184   ar
   117   106   104   ar
   118   122   129   am
   119   122   121    1
   120   200   199    1
   121   200   201    1
   122   129   135    1
   123   134   133    1
   124   134   135    1
   125   100   101    1
   126   100   103    1
   127   105   104   ar
   128   202   201    2
   129   158   160   ar
   130   158   156   ar
   131   104   103    1
   132   121   120    1
   133    70    69    2
   134   181   179   ar
   135    72    75    1
   136    72    71    1
   137   184   182   ar
   138   160   159   ar
   139   101   102    2
   140   201   210   am
   141   187   186    1
   142   187   192   am
   143    69    71   am
   144    69    68    1
   145   186   185    1
   146   155   156   ar
   147   155   153   ar
   148   177   176    2
   149   156   154   ar
   150    59    57   ar
   151   224   223   ar
   152   120   115   am
   153    68    67    1
   154   179   178    1
   155   179   180   ar
   156   182   180   ar
   157   176   185   am
   158   176   175    1
   159   192   193    1
   160   193   194    1
   161   193   196    1
   162   159   157   ar
   163   210   211    1
   164   225   223   ar
   165   197   196    1
   166   223   222    1
   167   195   194    2
   168    58    57   ar
   169   153   152   ar
   170    57    56    1
   171   178   175    1
   172   116   115    2
   173   154   157   ar
   174   154   152   ar
   175   115   114    1
   176   213   212    2
   177   196   198    1
   178   142   143    1
   179   222   221    1
   180   211   212    1
   181   211   214    1
   182    67    62   am
   183   145   144    2
   184   175   174    1
   185   212   217   am
   186   152   151    1
   187   217   218    1
   188   114   113    1
   189   114   117    1
   190    56    55    1
   191   144   143    1
   192   144   147   am
   193   143   146    1
   194    63    62    2
   195   218   221    1
   196   218   219    1
   197    62    61    1
   198   215   214    1
   199   214   216    1
   200    55    52    1
   201    54    53    2
   202   151   148    1
   203   147   148    1
   204   148   149    1
   205   118   117    1
   206   117   119    1
   207   220   219    2
   208    53    52    1
   209    53    60   am
   210    61    60    1
   211    61    64    1
   212   172   171   ar
   213    52    51    1
   214   173   171   ar
   215   161   149   am
   216   161   162    1
   217   149   150    2
   218    65    64    1
   219   171   170    1
   220    64    66    1
   221   162   163    1
   222   170   169    1
   223   165   163   am
   224   165   166    1
   225   169   166    1
   226   163   164    2
   227   166   167    1
   228   167   168    2
