@<TRIPOS>MOLECULE
tmp/2gsaB01.pdb
 115 109 0 0 0
SMALL
GASTEIGER

@<TRIPOS>ATOM
      1  N          9.4400   18.2650  -19.3710 N.3   116  SER116     -0.1202
      2  CA         9.2370   17.2490  -18.3380 C.3   116  SER116      0.2020
      3  C         10.5560   16.5420  -18.0770 C.2   116  SER116      0.2619
      4  O         11.5350   16.7340  -18.8180 O.2   116  SER116     -0.2717
      5  CB         8.2100   16.2220  -18.8020 C.3   116  SER116      0.2103
      6  OG         8.8020   15.4640  -19.8410 O.3   116  SER116     -0.2182
      7  N         10.5830   15.7610  -16.9940 N.am  117  GLY117     -0.1942
      8  CA        11.7580   14.9790  -16.6430 C.3   117  GLY117      0.2014
      9  C         11.9660   13.8810  -17.6750 C.2   117  GLY117      0.2639
     10  O         13.0980   13.5370  -17.9760 O.2   117  GLY117     -0.2714
     11  N         10.8790   13.3570  -18.2470 N.am  118  THR118     -0.1950
     12  CA        10.9580   12.3110  -19.2700 C.3   118  THR118      0.1897
     13  C         11.7430   12.8170  -20.4740 C.2   118  THR118      0.2313
     14  O         12.6380   12.1420  -20.9560 O.2   118  THR118     -0.2863
     15  CB         9.5540   11.8820  -19.7420 C.3   118  THR118      0.1794
     16  OG1        8.8230   11.3230  -18.6460 O.3   118  THR118     -0.2208
     17  CG2        9.6540   10.8450  -20.8400 C.3   118  THR118      0.0378
     18  N         15.4640   13.0510  -19.6680 N.3   121  CYS121     -0.1235
     19  CA        16.0950   11.7320  -19.6410 C.3   121  CYS121      0.1677
     20  C         16.3030   11.1670  -21.0550 C.2   121  CYS121      0.2270
     21  O         17.3400   10.5700  -21.3240 O.2   121  CYS121     -0.2867
     22  CB        15.3030   10.7660  -18.7550 C.3   121  CYS121      0.0956
     23  SG        15.3320   11.1950  -16.9810 S.3   121  CYS121     -0.0801
     24  N         13.6510    4.9570  -11.7760 N.3   144  TYR144     -0.1227
     25  CA        12.7540    5.3890  -12.8340 C.3   144  TYR144      0.1736
     26  C         13.4000    6.6060  -13.4820 C.2   144  TYR144      0.2595
     27  O         13.7940    7.5400  -12.7970 O.2   144  TYR144     -0.2718
     28  CB        11.3880    5.7540  -12.2680 C.3   144  TYR144      0.0548
     29  CG        10.4580    6.3720  -13.2840 C.ar  144  TYR144     -0.0200
     30  CD1        9.9290    5.6160  -14.3330 C.ar  144  TYR144     -0.0009
     31  CD2       10.1300    7.7230  -13.2170 C.ar  144  TYR144     -0.0009
     32  CE1        9.0970    6.2000  -15.2980 C.ar  144  TYR144      0.0417
     33  CE2        9.3010    8.3150  -14.1700 C.ar  144  TYR144      0.0417
     34  CZ         8.7910    7.5550  -15.2130 C.ar  144  TYR144      0.1957
     35  OH         8.0300    8.1640  -16.2010 O.3   144  TYR144     -0.2866
     36  N         13.5740    6.5580  -14.7930 N.am  145  HIS145     -0.1961
     37  CA        14.1910    7.6510  -15.5280 C.3   145  HIS145      0.1787
     38  C         13.3130    8.0520  -16.7140 C.2   145  HIS145      0.2621
     39  O         13.8110    8.2740  -17.8210 O.2   145  HIS145     -0.2715
     40  CB        15.5770    7.2250  -16.0270 C.3   145  HIS145      0.0785
     41  CG        16.5140    6.7930  -14.9430 C.ar  145  HIS145      0.0821
     42  ND1       17.1280    5.5570  -14.9320 N.ar  145  HIS145     -0.2267
     43  CD2       16.9530    7.4350  -13.8310 C.ar  145  HIS145      0.1154
     44  CE1       17.8970    5.4580  -13.8660 C.ar  145  HIS145      0.1986
     45  NE2       17.8110    6.5780  -13.1810 N.ar  145  HIS145     -0.2212
     46  N         12.0080    8.1400  -16.4760 N.am  146  GLY146     -0.1940
     47  CA        11.0780    8.5160  -17.5280 C.3   146  GLY146      0.2014
     48  C         10.5240    7.3610  -18.3370 C.2   146  GLY146      0.2638
     49  O         11.2220    6.3890  -18.6080 O.2   146  GLY146     -0.2714
     50  N          9.2500    7.4430  -18.6980 N.am  147  HIS147     -0.1973
     51  CA         8.6330    6.3840  -19.4860 C.3   147  HIS147      0.1656
     52  C          9.2280    6.3910  -20.8860 C.2   147  HIS147      0.2291
     53  O          8.6630    6.9650  -21.8180 O.2   147  HIS147     -0.2864
     54  CB         7.1150    6.5490  -19.5390 C.3   147  HIS147      0.0771
     55  CG         6.6600    7.9020  -20.0140 C.ar  147  HIS147      0.0820
     56  ND1        6.9660    9.0640  -19.3390 N.ar  147  HIS147     -0.2267
     57  CD2        5.9370    8.2550  -21.0830 C.ar  147  HIS147      0.1154
     58  CE1        6.4460   10.0860  -19.9880 C.ar  147  HIS147      0.1986
     59  NE2        5.8100    9.6330  -21.0570 N.ar  147  HIS147     -0.2212
     60  N         19.5490    7.4900   -9.8770 N.3   206  GLU206     -0.1245
     61  CA        18.9690    8.4830   -8.9840 C.3   206  GLU206      0.1567
     62  C         19.9890    8.4620   -7.8720 C.2   206  GLU206      0.2260
     63  O         20.2690    7.4050   -7.3430 O.2   206  GLU206     -0.2867
     64  CB        17.6390    8.0100   -8.4350 C.3   206  GLU206      0.0388
     65  CG        16.6030    7.8080   -9.4890 C.3   206  GLU206      0.1160
     66  CD        15.2560    7.4560   -8.9080 C.2   206  GLU206      0.3649
     67  OE1       14.8850    8.0000   -7.8440 O.co2 206  GLU206     -0.2457
     68  OE2       14.5570    6.6240   -9.5160 O.co2 206  GLU206     -0.2457
     69  N         12.0210    6.3930   -6.1340 N.3   211  ASN211     -0.1240
     70  CA        11.1180    5.6410   -7.0050 C.3   211  ASN211      0.1653
     71  C         10.9740    4.1130   -6.7480 C.2   211  ASN211      0.2266
     72  O         10.3920    3.3950   -7.5560 O.2   211  ASN211     -0.2867
     73  CB        11.4500    5.9350   -8.4750 C.3   211  ASN211      0.1155
     74  CG        10.9750    7.3250   -8.9240 C.2   211  ASN211      0.2627
     75  OD1        9.8130    7.5130   -9.2550 O.2   211  ASN211     -0.2716
     76  ND2       11.8870    8.2780   -8.9660 N.am  211  ASN211     -0.0877
     77  N         20.2260   11.5630  -12.2180 N.3   239  ASP239     -0.1239
     78  CA        18.8470   11.9170  -12.5290 C.3   239  ASP239      0.1674
     79  C         18.3630   12.5140  -11.2090 C.2   239  ASP239      0.2266
     80  O         18.0700   11.7930  -10.2490 O.2   239  ASP239     -0.2867
     81  CB        18.0200   10.6640  -12.8920 C.3   239  ASP239      0.1410
     82  CG        16.5540   10.9750  -13.2520 C.2   239  ASP239      0.3668
     83  OD1       16.0960   12.1100  -13.0620 O.co2 239  ASP239     -0.2456
     84  OD2       15.8350   10.0740  -13.7390 O.co2 239  ASP239     -0.2456
     85  N         15.7380   14.6280  -10.9390 N.3   241  VAL241     -0.1231
     86  CA        14.4150   15.1870  -11.1930 C.3   241  VAL241      0.1692
     87  C         13.6870   15.2460   -9.8580 C.2   241  VAL241      0.2591
     88  O         12.9860   16.2170   -9.5550 O.2   241  VAL241     -0.2718
     89  CB        13.6260   14.3250  -12.2060 C.3   241  VAL241      0.0266
     90  CG1       12.1460   14.7330  -12.2620 C.3   241  VAL241      0.0020
     91  CG2       14.2440   14.4630  -13.5890 C.3   241  VAL241      0.0020
     92  N         13.9030   14.2320   -9.0280 N.am  242  MET242     -0.1979
     93  CA        13.2640   14.1970   -7.7300 C.3   242  MET242      0.1605
     94  C         14.1140   14.8120   -6.6260 C.2   242  MET242      0.2287
     95  O         13.6030   15.5450   -5.7790 O.2   242  MET242     -0.2864
     96  CB        12.9110   12.7670   -7.3550 C.3   242  MET242      0.0413
     97  CG        12.0060   12.6810   -6.1520 C.3   242  MET242      0.0598
     98  SD        11.4270   11.0220   -5.8650 S.3   242  MET242     -0.1393
     99  CE        10.0070   10.9610   -6.9670 C.3   242  MET242      0.0692
    100  N         10.4580   18.5160  -11.9670 N.3   267  LYS267     -0.1197
    101  CA         9.5660   18.6640  -10.8300 C.3   267  LYS267      0.1778
    102  C          9.6510   20.0770  -10.2450 C.2   267  LYS267      0.2305
    103  O          8.9600   20.9860  -10.6720 O.2   267  LYS267     -0.2863
    104  CB         9.7770   17.4750   -9.9550 C.2   267  LYS267     -0.0042
    105  CG         9.0960   16.1710  -10.3450 C.2   267  LYS267     -0.0273
    106  CD         9.2990   15.0020   -9.4320 C.3   267  LYS267      0.0462
    107  CE         8.7620   13.6920   -9.9560 C.3   267  LYS267      0.1140
    108  NZ         9.6990   12.6430  -10.3270 N.3   267  LYS267     -0.1310
    109  N          7.8290   21.4830  -16.6110 N.3   275  VAL275     -0.1245
    110  CA         9.1600   21.9490  -16.9600 C.3   275  VAL275      0.1561
    111  C         10.2060   20.9030  -16.6030 C.2   275  VAL275      0.2260
    112  O         10.0780   20.2090  -15.5850 O.2   275  VAL275     -0.2867
    113  CB         9.5200   23.2100  -16.1490 C.3   275  VAL275      0.0252
    114  CG1       10.8650   23.7410  -16.5620 C.3   275  VAL275      0.0019
    115  CG2        8.4460   24.2720  -16.3090 C.3   275  VAL275      0.0019
@<TRIPOS>BOND
     1    53    52    2
     2    21    20    2
     3    57    59   ar
     4    57    55   ar
     5    59    58   ar
     6    20    19    1
     7    14    13    2
     8    52    51    1
     9    17    15    1
    10    13    12    1
    11    55    54    1
    12    55    56   ar
    13    58    56   ar
    14     6     5    1
    15    15    12    1
    16    15    16    1
    17    18    19    1
    18    19    22    1
    19    54    51    1
    20    51    50    1
    21     1     2    1
    22    12    11    1
    23     4     3    2
    24     5     2    1
    25    22    23    1
    26    50    48   am
    27    49    48    2
    28     2     3    1
    29    48    47    1
    30    11     9   am
    31     3     7   am
    32    10     9    2
    33    39    38    2
    34     9     8    1
    35    47    46    1
    36     7     8    1
    37   110   109    1
    38   110   111    1
    39   110   113    1
    40    38    46   am
    41    38    37    1
    42   111   112    2
    43   114   113    1
    44   115   113    1
    45    35    34    1
    46    40    37    1
    47    40    41    1
    48    37    36    1
    49    32    34   ar
    50    32    30   ar
    51    34    33   ar
    52    41    42   ar
    53    41    43   ar
    54    42    44   ar
    55    36    26   am
    56    30    29   ar
    57    33    31   ar
    58    44    45   ar
    59    43    45   ar
    60    84    82   ar
    61    91    89    1
    62    26    25    1
    63    26    27    2
    64    29    31   ar
    65    29    28    1
    66    82    83   ar
    67    82    81    1
    68    81    78    1
    69    25    28    1
    70    25    24    1
    71    78    77    1
    72    78    79    1
    73    90    89    1
    74    89    86    1
    75   100   101    1
    76    79    80    2
    77    86    85    1
    78    86    87    1
    79   101   102    1
    80   101   104    1
    81   103   102    2
    82   105   104    2
    83   105   106    1
    84   108   107    1
    85   107   106    1
    86    60    61    1
    87    87    88    2
    88    87    92   am
    89    68    66   ar
    90    65    66    1
    91    65    64    1
    92    75    74    2
    93    92    93    1
    94    61    64    1
    95    61    62    1
    96    76    74   am
    97    74    73    1
    98    66    67   ar
    99    73    70    1
   100    62    63    2
   101    93    96    1
   102    93    94    1
   103    72    71    2
   104    96    97    1
   105    70    71    1
   106    70    69    1
   107    99    98    1
   108    94    95    2
   109    97    98    1
