@<TRIPOS>MOLECULE
tmp/2gsiD00.pdb
 123 121 0 0 0
SMALL
GASTEIGER

@<TRIPOS>ATOM
      1  N         18.1300   54.8720   38.7710 N.3    29  LYS29      -0.1231
      2  CA        17.1250   53.8070   38.6200 C.3    29  LYS29       0.1693
      3  C         16.1050   54.0890   37.5130 C.2    29  LYS29       0.2592
      4  O         15.1940   53.2830   37.2840 O.2    29  LYS29      -0.2718
      5  CB        16.4200   53.4870   39.9620 C.3    29  LYS29       0.0285
      6  CG        16.2430   54.6330   40.9070 C.3    29  LYS29       0.0035
      7  CD        15.8220   54.1190   42.2850 C.3    29  LYS29       0.0206
      8  CE        16.1120   55.1670   43.4070 C.3    29  LYS29       0.1093
      9  NZ        15.3710   54.8920   44.6800 N.3    29  LYS29      -0.1314
     10  N         16.2520   55.2160   36.8230 N.am   30  ASP30      -0.1960
     11  CA        15.4820   55.4390   35.6050 C.3    30  ASP30       0.1840
     12  C         16.2720   55.0540   34.3610 C.2    30  ASP30       0.2622
     13  O         15.7900   55.2050   33.2440 O.2    30  ASP30      -0.2715
     14  CB        15.0570   56.8850   35.5120 C.3    30  ASP30       0.1450
     15  CG        14.1610   57.2760   36.6260 C.2    30  ASP30       0.3671
     16  OD1       13.3330   56.4320   37.0240 O.co2  30  ASP30      -0.2456
     17  OD2       14.2830   58.4070   37.1320 O.co2  30  ASP30      -0.2456
     18  N         17.4960   54.5740   34.5410 N.am   31  TYR31      -0.1960
     19  CA        18.3360   54.2930   33.3870 C.3    31  TYR31       0.1771
     20  C         18.9510   52.9490   33.4430 C.2    31  TYR31       0.2619
     21  O         18.8760   52.2590   34.4520 O.2    31  TYR31      -0.2715
     22  CB        19.4280   55.3490   33.2260 C.3    31  TYR31       0.0574
     23  CG        18.8420   56.6930   32.9570 C.ar   31  TYR31      -0.0198
     24  CD1       18.1640   57.3840   33.9650 C.ar   31  TYR31      -0.0009
     25  CD2       18.9040   57.2580   31.6980 C.ar   31  TYR31      -0.0009
     26  CE1       17.5790   58.6170   33.7260 C.ar   31  TYR31       0.0417
     27  CE2       18.3320   58.4960   31.4450 C.ar   31  TYR31       0.0417
     28  CZ        17.6720   59.1710   32.4640 C.ar   31  TYR31       0.1957
     29  OH        17.0950   60.3900   32.2310 O.3    31  TYR31      -0.2866
     30  N         19.5010   52.5550   32.3110 N.am   32  TYR32      -0.1974
     31  CA        20.4970   51.5410   32.2750 C.3    32  TYR32       0.1639
     32  C         21.8210   52.2720   32.3110 C.2    32  TYR32       0.2290
     33  O         22.1160   53.1220   31.4710 O.2    32  TYR32      -0.2864
     34  CB        20.3820   50.7360   30.9890 C.3    32  TYR32       0.0560
     35  CG        19.1890   49.8460   30.9660 C.ar   32  TYR32      -0.0198
     36  CD1       19.1880   48.6320   31.6430 C.ar   32  TYR32      -0.0009
     37  CD2       18.0480   50.2090   30.2560 C.ar   32  TYR32      -0.0009
     38  CE1       18.0770   47.8120   31.6190 C.ar   32  TYR32       0.0417
     39  CE2       16.9440   49.3920   30.2180 C.ar   32  TYR32       0.0417
     40  CZ        16.9620   48.2080   30.8970 C.ar   32  TYR32       0.1957
     41  OH        15.8530   47.4210   30.8630 O.3    32  TYR32      -0.2866
     42  N         25.4760   51.9480   31.4920 N.3    34  TYR34      -0.1241
     43  CA        26.3180   51.1200   30.5950 C.3    34  TYR34       0.1605
     44  C         27.7730   51.5000   30.7420 C.2    34  TYR34       0.2264
     45  O         28.0780   52.6070   31.1400 O.2    34  TYR34      -0.2867
     46  CB        25.9750   51.3630   29.1070 C.3    34  TYR34       0.0534
     47  CG        24.5540   51.1280   28.6710 C.ar   34  TYR34      -0.0201
     48  CD1       23.6350   52.1810   28.6080 C.ar   34  TYR34      -0.0009
     49  CD2       24.1450   49.8880   28.2510 C.ar   34  TYR34      -0.0009
     50  CE1       22.3070   51.9740   28.1840 C.ar   34  TYR34       0.0417
     51  CE2       22.8230   49.6700   27.8110 C.ar   34  TYR34       0.0417
     52  CZ        21.9180   50.7180   27.7840 C.ar   34  TYR34       0.1957
     53  OH        20.6270   50.4860   27.3580 O.3    34  TYR34      -0.2866
     54  N         25.8250   46.3590   31.0540 N.3    49  TRP49      -0.1241
     55  CA        24.8650   47.2280   31.7200 C.3    49  TRP49       0.1605
     56  C         24.4270   46.7970   33.1230 C.2    49  TRP49       0.2264
     57  O         24.3410   45.6020   33.4510 O.2    49  TRP49      -0.2867
     58  CB        23.6250   47.4360   30.8420 C.3    49  TRP49       0.0550
     59  CG        22.8010   46.1780   30.5230 C.ar   49  TRP49       0.0003
     60  CD1       22.8760   45.4170   29.3900 C.ar   49  TRP49       0.0946
     61  CD2       21.7490   45.5970   31.3210 C.ar   49  TRP49       0.0152
     62  NE1       21.9620   44.3930   29.4420 N.ar   49  TRP49      -0.2442
     63  CE2       21.2600   44.4760   30.6150 C.ar   49  TRP49       0.0810
     64  CE3       21.1770   45.9170   32.5600 C.ar   49  TRP49       0.0012
     65  CZ2       20.2280   43.6560   31.1150 C.ar   49  TRP49       0.0191
     66  CZ3       20.1300   45.1060   33.0540 C.ar   49  TRP49       0.0001
     67  CH2       19.6720   43.9910   32.3300 C.ar   49  TRP49       0.0015
     68  N         21.0620   47.5620   35.6970 N.3    51  ASP51      -0.1239
     69  CA        19.8160   48.2510   35.9420 C.3    51  ASP51       0.1674
     70  C         19.6850   48.5410   37.4090 C.2    51  ASP51       0.2266
     71  O         19.3140   47.6620   38.2050 O.2    51  ASP51      -0.2867
     72  CB        18.6150   47.4760   35.4740 C.3    51  ASP51       0.1410
     73  CG        17.3380   48.2460   35.6860 C.2    51  ASP51       0.3668
     74  OD1       16.2670   47.7790   35.2290 O.co2  51  ASP51      -0.2456
     75  OD2       17.4120   49.3440   36.2950 O.co2  51  ASP51      -0.2456
     76  N         17.6710   49.9950   39.2020 N.3    53  GLU53      -0.1245
     77  CA        16.4000   49.8440   39.8360 C.3    53  GLU53       0.1567
     78  C         16.1870   48.4740   40.4360 C.2    53  GLU53       0.2260
     79  O         15.2950   48.3060   41.2530 O.2    53  GLU53      -0.2867
     80  CB        15.3010   50.1310   38.8400 C.3    53  GLU53       0.0388
     81  CG        14.0840   50.6960   39.4940 C.3    53  GLU53       0.1160
     82  CD        12.8890   50.5010   38.6460 C.2    53  GLU53       0.3649
     83  OE1       12.1730   49.5020   38.9010 O.co2  53  GLU53      -0.2457
     84  OE2       12.6930   51.3160   37.6980 O.co2  53  GLU53      -0.2457
     85  N         24.1970   42.5930   32.9710 N.3    58  GLU58      -0.1245
     86  CA        24.4970   41.6560   31.9290 C.3    58  GLU58       0.1567
     87  C         25.7590   42.1100   31.3360 C.2    58  GLU58       0.2260
     88  O         25.9090   43.2740   31.0220 O.2    58  GLU58      -0.2867
     89  CB        23.4090   41.6460   30.8710 C.3    58  GLU58       0.0388
     90  CG        23.3690   40.3690   30.0420 C.3    58  GLU58       0.1160
     91  CD        22.1650   40.3350   29.1050 C.2    58  GLU58       0.3649
     92  OE1       21.3990   41.3360   29.0920 O.co2  58  GLU58      -0.2457
     93  OE2       21.9790   39.3190   28.3720 O.co2  58  GLU58      -0.2457
     94  N         18.3950   55.2070   28.2640 N.3    99  VAL99      -0.1231
     95  CA        17.1590   54.4850   28.2460 C.3    99  VAL99       0.1692
     96  C         16.3510   54.9140   27.0230 C.2    99  VAL99       0.2592
     97  O         16.4490   56.0620   26.5490 O.2    99  VAL99      -0.2718
     98  CB        16.3520   54.6630   29.5850 C.3    99  VAL99       0.0266
     99  CG1       15.5070   55.8900   29.5650 C.3    99  VAL99       0.0020
    100  CG2       15.4980   53.4520   29.8520 C.3    99  VAL99       0.0020
    101  N         15.6210   53.9520   26.4760 N.am  100  ILE100     -0.1966
    102  CA        14.5440   54.2240   25.5710 C.3   100  ILE100      0.1727
    103  C         13.3320   53.9440   26.4230 C.2   100  ILE100      0.2617
    104  O         13.2360   52.8780   27.0380 O.2   100  ILE100     -0.2715
    105  CB        14.5520   53.2390   24.3690 C.3   100  ILE100      0.0290
    106  CG1       15.9290   53.2110   23.6540 C.3   100  ILE100      0.0022
    107  CG2       13.3930   53.5220   23.4200 C.3   100  ILE100      0.0023
    108  CD1       16.6230   54.5350   23.5460 C.3   100  ILE100      0.0001
    109  N         12.4340   54.9240   26.5090 N.am  101  THR101     -0.1937
    110  CA        11.1700   54.7620   27.2290 C.3   101  THR101      0.2028
    111  C         10.1760   54.0120   26.3310 C.2   101  THR101      0.2642
    112  O         10.5830   53.1880   25.5240 O.2   101  THR101     -0.2714
    113  CB        10.6170   56.1270   27.7310 C.3   101  THR101      0.1808
    114  OG1       10.5330   57.0660   26.6390 O.3   101  THR101     -0.2208
    115  CG2       11.5290   56.7080   28.8350 C.3   101  THR101      0.0379
    116  N          8.8840   54.2960   26.4560 N.am  102  MET102     -0.1976
    117  CA         7.8560   53.4750   25.8000 C.3   102  MET102      0.1605
    118  C          6.4870   54.1540   25.8580 C.2   102  MET102      0.2287
    119  O          5.7660   54.0310   26.8630 O.2   102  MET102     -0.2864
    120  CB         7.7710   52.1030   26.4880 C.3   102  MET102      0.0413
    121  CG         8.4340   50.9660   25.7300 C.3   102  MET102      0.0598
    122  SD         8.0940   49.3550   26.5050 S.3   102  MET102     -0.1393
    123  CE         6.3650   49.6500   27.1030 C.3   102  MET102      0.0692
@<TRIPOS>BOND
     1   107   105    1
     2   108   106    1
     3   106   105    1
     4   105   102    1
     5   112   111    2
     6   102   103    1
     7   102   101    1
     8   121   120    1
     9   121   122    1
    10   117   118    1
    11   117   116    1
    12   117   120    1
    13   118   119    2
    14   111   116   am
    15   111   110    1
    16   103   109   am
    17   103   104    2
    18   101    96   am
    19   122   123    1
    20   109   110    1
    21    97    96    2
    22   114   113    1
    23    96    95    1
    24   110   113    1
    25    53    52    1
    26   113   115    1
    27    52    51   ar
    28    52    50   ar
    29    51    49   ar
    30    50    48   ar
    31    95    94    1
    32    95    98    1
    33    49    47   ar
    34    93    91   ar
    35    48    47   ar
    36    47    46    1
    37    92    91   ar
    38    91    90    1
    39    46    43    1
    40    60    62   ar
    41    60    59   ar
    42    62    63   ar
    43    99    98    1
    44    98   100    1
    45    90    89    1
    46    39    37   ar
    47    39    40   ar
    48    37    35   ar
    49    59    58    1
    50    59    61   ar
    51    43    44    1
    52    43    42    1
    53    63    65   ar
    54    63    61   ar
    55    44    45    2
    56    58    55    1
    57    41    40    1
    58    89    86    1
    59    40    38   ar
    60    35    34    1
    61    35    36   ar
    62    34    31    1
    63    88    87    2
    64    54    55    1
    65    65    67   ar
    66    61    64   ar
    67    87    86    1
    68    27    25   ar
    69    27    28   ar
    70    33    32    2
    71    38    36   ar
    72    25    23   ar
    73    55    56    1
    74    86    85    1
    75    29    28    1
    76    31    30    1
    77    31    32    1
    78    30    20   am
    79    67    66   ar
    80    28    26   ar
    81    64    66   ar
    82    23    22    1
    83    23    24   ar
    84    56    57    2
    85    22    19    1
    86    13    12    2
    87    19    20    1
    88    19    18    1
    89    20    21    2
    90    26    24   ar
    91    12    18   am
    92    12    11    1
    93    74    73   ar
    94    72    73    1
    95    72    69    1
    96    14    11    1
    97    14    15    1
    98    11    10    1
    99    73    75   ar
   100    68    69    1
   101    69    70    1
   102    15    16   ar
   103    15    17   ar
   104    10     3   am
   105     4     3    2
   106    70    71    2
   107     3     2    1
   108    84    82   ar
   109     2     1    1
   110     2     5    1
   111    82    83   ar
   112    82    81    1
   113    80    81    1
   114    80    77    1
   115    76    77    1
   116    77    78    1
   117     5     6    1
   118    78    79    2
   119     6     7    1
   120     7     8    1
   121     8     9    1
