@<TRIPOS>MOLECULE
tmp/2gsiH00.pdb
 146 144 0 0 0
SMALL
GASTEIGER

@<TRIPOS>ATOM
      1  N         16.5750   46.4990   52.6870 N.3    29  LYS29      -0.1231
      2  CA        17.5410   47.5700   52.7990 C.3    29  LYS29       0.1693
      3  C         17.6780   48.0920   54.2150 C.2    29  LYS29       0.2592
      4  O         18.5450   48.9340   54.4960 O.2    29  LYS29      -0.2718
      5  CB        17.3700   48.6800   51.7500 C.3    29  LYS29       0.0285
      6  CG        15.9710   49.1730   51.5060 C.3    29  LYS29       0.0035
      7  CD        15.9050   49.9520   50.1600 C.3    29  LYS29       0.0206
      8  CE        14.4220   50.4030   49.8840 C.3    29  LYS29       0.1093
      9  NZ        14.2600   51.1410   48.5740 N.3    29  LYS29      -0.1314
     10  N         16.8780   47.5520   55.1300 N.am   30  ASP30      -0.1960
     11  CA        17.0380   47.9210   56.5280 C.3    30  ASP30       0.1840
     12  C         17.9880   46.9670   57.2130 C.2    30  ASP30       0.2622
     13  O         18.4250   47.2050   58.3250 O.2    30  ASP30      -0.2715
     14  CB        15.6960   47.9630   57.2530 C.3    30  ASP30       0.1450
     15  CG        14.8500   49.1480   56.8490 C.2    30  ASP30       0.3671
     16  OD1       15.3960   50.2290   56.5640 O.co2  30  ASP30      -0.2456
     17  OD2       13.6210   49.0090   56.8660 O.co2  30  ASP30      -0.2456
     18  N         18.3200   45.8740   56.5490 N.am   31  TYR31      -0.1960
     19  CA        19.1760   44.8920   57.1940 C.3    31  TYR31       0.1771
     20  C         20.4650   44.7140   56.4190 C.2    31  TYR31       0.2619
     21  O         20.7560   45.4730   55.5100 O.2    31  TYR31      -0.2715
     22  CB        18.4150   43.5690   57.4300 C.3    31  TYR31       0.0574
     23  CG        17.2240   43.7270   58.3750 C.ar   31  TYR31      -0.0198
     24  CD1       15.9810   44.1960   57.9040 C.ar   31  TYR31      -0.0009
     25  CD2       17.3390   43.4330   59.7310 C.ar   31  TYR31      -0.0009
     26  CE1       14.8670   44.3560   58.7780 C.ar   31  TYR31       0.0417
     27  CE2       16.2460   43.5950   60.6180 C.ar   31  TYR31       0.0417
     28  CZ        15.0100   44.0480   60.1420 C.ar   31  TYR31       0.1957
     29  OH        13.9240   44.1950   61.0220 O.3    31  TYR31      -0.2866
     30  N         21.2760   43.7690   56.8450 N.am   32  TYR32      -0.1974
     31  CA        22.4590   43.3960   56.1230 C.3    32  TYR32       0.1639
     32  C         22.1030   41.9820   55.7390 C.2    32  TYR32       0.2290
     33  O         21.6350   41.2070   56.6030 O.2    32  TYR32      -0.2864
     34  CB        23.6680   43.3520   57.0710 C.3    32  TYR32       0.0560
     35  CG        24.5230   44.6030   57.1930 C.ar   32  TYR32      -0.0198
     36  CD1       25.5260   44.8890   56.2490 C.ar   32  TYR32      -0.0009
     37  CD2       24.3990   45.4610   58.3090 C.ar   32  TYR32      -0.0009
     38  CE1       26.3400   46.0220   56.3670 C.ar   32  TYR32       0.0417
     39  CE2       25.2230   46.6000   58.4470 C.ar   32  TYR32       0.0417
     40  CZ        26.1920   46.8670   57.4630 C.ar   32  TYR32       0.1957
     41  OH        27.0240   47.9610   57.5940 O.3    32  TYR32      -0.2866
     42  N         23.3160   38.5500   55.1570 N.3    34  TYR34      -0.1241
     43  CA        24.4610   37.6820   55.2850 C.3    34  TYR34       0.1605
     44  C         24.2040   36.3730   54.5640 C.2    34  TYR34       0.2264
     45  O         23.0680   36.0310   54.2530 O.2    34  TYR34      -0.2867
     46  CB        24.7310   37.3880   56.7600 C.3    34  TYR34       0.0534
     47  CG        24.9530   38.6110   57.5920 C.ar   34  TYR34      -0.0201
     48  CD1       23.8980   39.2010   58.2950 C.ar   34  TYR34      -0.0009
     49  CD2       26.2100   39.1980   57.6710 C.ar   34  TYR34      -0.0009
     50  CE1       24.0980   40.3280   59.0680 C.ar   34  TYR34       0.0417
     51  CE2       26.4140   40.3440   58.4360 C.ar   34  TYR34       0.0417
     52  CZ        25.3540   40.8900   59.1340 C.ar   34  TYR34       0.1957
     53  OH        25.5580   42.0190   59.8920 O.3    34  TYR34      -0.2866
     54  N         28.4440   39.3730   53.3260 N.3    49  TRP49      -0.1241
     55  CA        27.1480   40.0510   53.4350 C.3    49  TRP49       0.1605
     56  C         26.8720   40.9530   52.2470 C.2    49  TRP49       0.2264
     57  O         27.7450   41.1760   51.4000 O.2    49  TRP49      -0.2867
     58  CB        27.0440   40.8650   54.7500 C.3    49  TRP49       0.0550
     59  CG        28.2140   41.7750   55.0300 C.ar   49  TRP49       0.0003
     60  CD1       29.2700   41.5140   55.8530 C.ar   49  TRP49       0.0946
     61  CD2       28.4420   43.0860   54.4910 C.ar   49  TRP49       0.0152
     62  NE1       30.1420   42.5730   55.8580 N.ar   49  TRP49      -0.2442
     63  CE2       29.6550   43.5540   55.0330 C.ar   49  TRP49       0.0810
     64  CE3       27.7330   43.9140   53.6100 C.ar   49  TRP49       0.0012
     65  CZ2       30.1760   44.8200   54.7280 C.ar   49  TRP49       0.0191
     66  CZ3       28.2500   45.1850   53.3220 C.ar   49  TRP49       0.0001
     67  CH2       29.4550   45.6180   53.8790 C.ar   49  TRP49       0.0015
     68  N         24.7330   44.8790   51.5750 N.3    51  ASP51      -0.1239
     69  CA        23.9280   45.9910   52.0720 C.3    51  ASP51       0.1674
     70  C         23.0840   46.5370   50.9330 C.2    51  ASP51       0.2266
     71  O         23.5710   47.3010   50.0880 O.2    51  ASP51      -0.2867
     72  CB        24.8000   47.0990   52.6540 C.3    51  ASP51       0.1410
     73  CG        23.9790   48.1880   53.3570 C.2    51  ASP51       0.3668
     74  OD1       22.7390   48.2060   53.2460 O.co2  51  ASP51      -0.2456
     75  OD2       24.5830   49.0410   54.0310 O.co2  51  ASP51      -0.2456
     76  N         20.9700   48.7580   50.9460 N.3    53  GLU53      -0.1245
     77  CA        20.7620   50.1830   50.9480 C.3    53  GLU53       0.1567
     78  C         21.8470   50.8690   50.0960 C.2    53  GLU53       0.2260
     79  O         21.8060   52.0980   49.9080 O.2    53  GLU53      -0.2867
     80  CB        20.6920   50.7400   52.3900 C.3    53  GLU53       0.0388
     81  CG        19.5470   51.7840   52.6240 C.3    53  GLU53       0.1160
     82  CD        19.0670   51.9440   54.1270 C.2    53  GLU53       0.3649
     83  OE1       19.6080   51.2830   55.0780 O.co2  53  GLU53      -0.2457
     84  OE2       18.1220   52.7510   54.3530 O.co2  53  GLU53      -0.2457
     85  N         26.8210   47.6720   48.6210 N.3    56  ASP56      -0.1225
     86  CA        28.0190   47.3070   49.3680 C.3    56  ASP56       0.1805
     87  C         28.0700   45.8050   49.6090 C.2    56  ASP56       0.2598
     88  O         27.0830   45.1950   50.0120 O.2    56  ASP56      -0.2718
     89  CB        28.0260   48.0170   50.7380 C.3    56  ASP56       0.1424
     90  CG        28.4780   49.4960   50.6560 C.2    56  ASP56       0.3668
     91  OD1       29.5810   49.8250   51.1670 O.co2  56  ASP56      -0.2456
     92  OD2       27.7400   50.3250   50.0830 O.co2  56  ASP56      -0.2456
     93  N         29.2250   45.2070   49.3760 N.am   57  THR57      -0.1939
     94  CA        29.4390   43.7920   49.6810 C.3    57  THR57       0.2028
     95  C         30.7530   43.6530   50.4170 C.2    57  THR57       0.2642
     96  O         31.6250   44.4940   50.2750 O.2    57  THR57      -0.2714
     97  CB        29.5580   42.9580   48.4060 C.3    57  THR57       0.1808
     98  OG1       30.6140   43.4840   47.6050 O.3    57  THR57      -0.2208
     99  CG2       28.2790   42.9870   47.6260 C.3    57  THR57       0.0379
    100  N         30.9130   42.5890   51.1920 N.am   58  GLU58      -0.1976
    101  CA        32.2300   42.2270   51.7340 C.3    58  GLU58       0.1602
    102  C         32.2410   40.7470   51.9640 C.2    58  GLU58       0.2287
    103  O         31.4230   40.2130   52.7030 O.2    58  GLU58      -0.2864
    104  CB        32.5420   42.9690   53.0430 C.3    58  GLU58       0.0415
    105  CG        34.0390   43.2910   53.2640 C.3    58  GLU58       0.1163
    106  CD        34.3420   43.7200   54.7150 C.2    58  GLU58       0.3649
    107  OE1       33.3740   43.9820   55.5000 O.co2  58  GLU58      -0.2457
    108  OE2       35.5480   43.7990   55.0800 O.co2  58  GLU58      -0.2457
    109  N         21.0410   42.8150   61.6650 N.3    99  VAL99      -0.1231
    110  CA        21.5930   44.1540   61.8750 C.3    99  VAL99       0.1692
    111  C         21.6930   44.4900   63.3700 C.2    99  VAL99       0.2592
    112  O         20.9880   43.8980   64.2010 O.2    99  VAL99      -0.2718
    113  CB        20.7730   45.2420   61.0710 C.3    99  VAL99       0.0266
    114  CG1       19.5100   45.6610   61.8170 C.3    99  VAL99       0.0020
    115  CG2       21.6240   46.4290   60.7210 C.3    99  VAL99       0.0020
    116  N         22.6010   45.4040   63.7120 N.am  100  ILE100     -0.1966
    117  CA        22.6740   45.9440   65.0670 C.3   100  ILE100      0.1727
    118  C         22.2850   47.4110   65.0260 C.2   100  ILE100      0.2617
    119  O         22.9750   48.2060   64.4220 O.2   100  ILE100     -0.2715
    120  CB        24.1010   45.8010   65.6790 C.3   100  ILE100      0.0290
    121  CG1       24.4840   44.3150   65.8670 C.3   100  ILE100      0.0022
    122  CG2       24.2030   46.5720   67.0020 C.3   100  ILE100      0.0023
    123  CD1       23.3560   43.4020   66.4280 C.3   100  ILE100      0.0001
    124  N         21.1670   47.7640   65.6520 N.am  101  THR101     -0.1937
    125  CA        20.6920   49.1600   65.6170 C.3   101  THR101      0.2028
    126  C         21.7520   50.1150   66.1520 C.2   101  THR101      0.2642
    127  O         22.4450   49.7970   67.1340 O.2   101  THR101     -0.2714
    128  CB        19.3990   49.3650   66.4270 C.3   101  THR101      0.1808
    129  OG1       19.4760   48.6140   67.6570 O.3   101  THR101     -0.2208
    130  CG2       18.1800   48.9210   65.5950 C.3   101  THR101      0.0379
    131  N         21.8930   51.2780   65.5080 N.am  102  MET102     -0.1962
    132  CA        22.8090   52.2650   66.0380 C.3   102  MET102      0.1736
    133  C         22.2260   52.9940   67.1980 C.2   102  MET102      0.2616
    134  O         22.0670   54.2040   67.2080 O.2   102  MET102     -0.2715
    135  CB        23.4000   53.1560   64.9850 C.3   102  MET102      0.0427
    136  CG        24.6990   52.5720   64.5130 C.3   102  MET102      0.0599
    137  SD        26.0610   53.6860   64.7870 S.3   102  MET102     -0.1393
    138  CE        26.4670   53.3730   66.5180 C.3   102  MET102      0.0692
    139  N         21.8770   52.1750   68.1740 N.am  103  MET103     -0.1977
    140  CA        21.5860   52.5760   69.5230 C.3   103  MET103      0.1605
    141  C         20.1430   52.3860   69.9340 C.2   103  MET103      0.2287
    142  O         19.2110   52.9360   69.3270 O.2   103  MET103     -0.2864
    143  CB        22.1650   53.9580   69.8740 C.3   103  MET103      0.0413
    144  CG        23.6990   53.9030   70.0680 C.3   103  MET103      0.0598
    145  SD        24.2460   52.6660   71.3340 S.3   103  MET103     -0.1393
    146  CE        24.2510   50.9780   70.4320 C.3   103  MET103      0.0692
@<TRIPOS>BOND
     1    98    97    1
     2    99    97    1
     3    97    94    1
     4     9     8    1
     5    85    86    1
     6    86    87    1
     7    86    89    1
     8    93    87   am
     9    93    94    1
    10    87    88    2
    11    94    95    1
    12     8     7    1
    13    79    78    2
    14    92    90   ar
    15    71    70    2
    16    78    77    1
    17     7     6    1
    18    96    95    2
    19    95   100   am
    20    90    89    1
    21    90    91   ar
    22    70    69    1
    23    76    77    1
    24    77    80    1
    25   100   101    1
    26    57    56    2
    27     6     5    1
    28    68    69    1
    29   101   102    1
    30   101   104    1
    31     5     2    1
    32   102   103    2
    33    69    72    1
    34    56    55    1
    35    80    81    1
    36    81    82    1
    37    72    73    1
    38     1     2    1
    39     2     3    1
    40   104   105    1
    41    74    73   ar
    42   105   106    1
    43    66    64   ar
    44    66    67   ar
    45    54    55    1
    46    73    75   ar
    47    55    58    1
    48    64    61   ar
    49    67    65   ar
    50    82    84   ar
    51    82    83   ar
    52     3     4    2
    53     3    10   am
    54    45    44    2
    55    61    59   ar
    56    61    63   ar
    57    44    43    1
    58   106   108   ar
    59   106   107   ar
    60    65    63   ar
    61    58    59    1
    62    59    60   ar
    63    63    62   ar
    64    10    11    1
    65    42    43    1
    66    43    46    1
    67    21    20    2
    68    32    31    1
    69    32    33    2
    70    60    62   ar
    71    31    30    1
    72    31    34    1
    73    36    38   ar
    74    36    35   ar
    75    38    40   ar
    76    20    30   am
    77    20    19    1
    78    11    12    1
    79    11    14    1
    80    18    19    1
    81    18    12   am
    82    16    15   ar
    83    46    47    1
    84    15    17   ar
    85    15    14    1
    86    34    35    1
    87    35    37   ar
    88    19    22    1
    89    12    13    2
    90    22    23    1
    91    40    41    1
    92    40    39   ar
    93    47    49   ar
    94    47    48   ar
    95    49    51   ar
    96    24    23   ar
    97    24    26   ar
    98    48    50   ar
    99    37    39   ar
   100    23    25   ar
   101    51    52   ar
   102    26    28   ar
   103    50    52   ar
   104    52    53    1
   105    25    27   ar
   106    28    27   ar
   107    28    29    1
   108   115   113    1
   109   113   114    1
   110   113   110    1
   111   109   110    1
   112   110   111    1
   113   111   116   am
   114   111   112    2
   115   116   117    1
   116   119   118    2
   117   136   137    1
   118   136   135    1
   119   137   138    1
   120   135   132    1
   121   118   117    1
   122   118   124   am
   123   117   120    1
   124   131   132    1
   125   131   126   am
   126   130   128    1
   127   125   124    1
   128   125   126    1
   129   125   128    1
   130   120   121    1
   131   120   122    1
   132   121   123    1
   133   132   133    1
   134   126   127    2
   135   128   129    1
   136   133   134    2
   137   133   139   am
   138   139   140    1
   139   142   141    2
   140   140   143    1
   141   140   141    1
   142   143   144    1
   143   144   145    1
   144   146   145    1
