@<TRIPOS>MOLECULE
tmp/2gskA04.pdb
 115 114 0 0 0
SMALL
GASTEIGER

@<TRIPOS>ATOM
      1  N         55.7420   -3.4880   -6.1160 N.3   140  TRP140     -0.1227
      2  CA        56.3580   -3.9260   -7.3710 C.3   140  TRP140      0.1737
      3  C         55.6180   -5.1460   -7.8060 C.2   140  TRP140      0.2596
      4  O         55.2060   -5.9980   -6.9860 O.2   140  TRP140     -0.2718
      5  CB        57.8670   -4.2080   -7.2010 C.3   140  TRP140      0.0564
      6  CG        58.5750   -2.9840   -6.7060 C.ar  140  TRP140      0.0003
      7  CD1       59.1320   -2.0030   -7.4710 C.ar  140  TRP140      0.0946
      8  CD2       58.6880   -2.5450   -5.3410 C.ar  140  TRP140      0.0152
      9  NE1       59.5690   -0.9760   -6.6720 N.ar  140  TRP140     -0.2442
     10  CE2       59.3120   -1.2820   -5.3620 C.ar  140  TRP140      0.0810
     11  CE3       58.3110   -3.0930   -4.1060 C.ar  140  TRP140      0.0012
     12  CZ2       59.5670   -0.5560   -4.2000 C.ar  140  TRP140      0.0191
     13  CZ3       58.5650   -2.3670   -2.9490 C.ar  140  TRP140      0.0001
     14  CH2       59.1870   -1.1130   -3.0070 C.ar  140  TRP140      0.0015
     15  N         55.5130   -5.3140   -9.1090 N.am  141  GLY141     -0.1942
     16  CA        54.8730   -6.4840   -9.6790 C.3   141  GLY141      0.2014
     17  C         55.3430   -6.8350  -11.0800 C.2   141  GLY141      0.2640
     18  O         56.2710   -6.2600  -11.6160 O.2   141  GLY141     -0.2714
     19  N         54.6810   -7.8140  -11.6520 N.am  142  SER142     -0.1935
     20  CA        54.8820   -8.2060  -13.0660 C.3   142  SER142      0.2055
     21  C         54.8540   -6.9980  -14.0220 C.2   142  SER142      0.2643
     22  O         54.1610   -5.9930  -13.7460 O.2   142  SER142     -0.2714
     23  CB        53.7670   -9.2150  -13.4200 C.3   142  SER142      0.2130
     24  OG        54.0270  -10.3600  -12.6540 O.3   142  SER142     -0.2179
     25  N         55.5780   -7.1280  -15.1420 N.am  143  ASN143     -0.1957
     26  CA        55.6190   -6.1570  -16.2540 C.3   143  ASN143      0.1819
     27  C         56.1780   -4.8060  -15.7900 C.2   143  ASN143      0.2622
     28  O         55.7480   -3.7450  -16.2440 O.2   143  ASN143     -0.2715
     29  CB        54.2060   -6.0050  -16.8700 C.3   143  ASN143      0.1195
     30  CG        53.6930   -7.3070  -17.5410 C.2   143  ASN143      0.2630
     31  OD1       54.4800   -8.0940  -18.0300 O.2   143  ASN143     -0.2716
     32  ND2       52.3520   -7.5210  -17.5550 N.am  143  ASN143     -0.0877
     33  N         57.1590   -4.8780  -14.9180 N.am  144  SER144     -0.1950
     34  CA        57.8580   -3.7320  -14.3190 C.3   144  SER144      0.1924
     35  C         56.9470   -2.7530  -13.5790 C.2   144  SER144      0.2314
     36  O         57.3020   -1.5980  -13.4960 O.2   144  SER144     -0.2863
     37  CB        58.6650   -2.9320  -15.3670 C.3   144  SER144      0.2116
     38  OG        59.7090   -3.7280  -15.9160 O.3   144  SER144     -0.2180
     39  N         44.0970  -13.7900    4.4010 N.3   512  TRP512     -0.1241
     40  CA        44.0450  -14.3150    3.0730 C.3   512  TRP512      0.1605
     41  C         42.7110  -13.9110    2.4150 C.2   512  TRP512      0.2264
     42  O         41.6980  -13.7420    3.1010 O.2   512  TRP512     -0.2867
     43  CB        44.0690  -15.8200    3.1110 C.3   512  TRP512      0.0550
     44  CG        45.3490  -16.4210    3.5740 C.ar  512  TRP512      0.0003
     45  CD1       45.6710  -16.7570    4.8390 C.ar  512  TRP512      0.0946
     46  CD2       46.4580  -16.7970    2.7670 C.ar  512  TRP512      0.0152
     47  NE1       46.9290  -17.2970    4.8890 N.ar  512  TRP512     -0.2442
     48  CE2       47.4270  -17.3610    3.6300 C.ar  512  TRP512      0.0810
     49  CE3       46.7130  -16.7390    1.3920 C.ar  512  TRP512      0.0012
     50  CZ2       48.6450  -17.8330    3.1860 C.ar  512  TRP512      0.0191
     51  CZ3       47.9570  -17.2140    0.9310 C.ar  512  TRP512      0.0001
     52  CH2       48.8840  -17.7650    1.8080 C.ar  512  TRP512      0.0015
     53  N         44.6200  -14.7680   -5.7410 N.3   545  LEU545     -0.1245
     54  CA        44.9720  -15.1550   -4.3860 C.3   545  LEU545      0.1561
     55  C         45.7210  -13.9740   -3.8010 C.2   545  LEU545      0.2260
     56  O         46.5990  -13.4900   -4.4320 O.2   545  LEU545     -0.2867
     57  CB        45.8620  -16.4370   -4.3890 C.3   545  LEU545      0.0270
     58  CG        46.3190  -16.9900   -2.9960 C.3   545  LEU545      0.0019
     59  CD1       45.1720  -17.2340   -1.9470 C.3   545  LEU545      0.0001
     60  CD2       47.2340  -18.2980   -3.2030 C.3   545  LEU545      0.0001
     61  N         47.4160  -12.2780    0.0560 N.3   547  VAL547     -0.1245
     62  CA        47.8150  -12.4260    1.4230 C.3   547  VAL547      0.1561
     63  C         48.4340  -11.0900    1.9420 C.2   547  VAL547      0.2260
     64  O         49.0600  -10.3190    1.1990 O.2   547  VAL547     -0.2867
     65  CB        48.7450  -13.6150    1.6120 C.3   547  VAL547      0.0252
     66  CG1       50.1560  -13.3430    1.1230 C.3   547  VAL547      0.0019
     67  CG2       48.7300  -14.0290    3.0750 C.3   547  VAL547      0.0019
     68  N         51.0450   -9.4690   -0.6820 N.3   559  GLY559     -0.1210
     69  CA        51.4250  -10.1260   -1.9260 C.3   559  GLY559      0.1956
     70  C         50.1650  -10.5630   -2.5980 C.2   559  GLY559      0.2615
     71  O         49.2170  -10.8830   -1.9170 O.2   559  GLY559     -0.2717
     72  N         50.1560  -10.5790   -3.9480 N.am  560  LYS560     -0.1920
     73  CA        48.9490  -10.9560   -4.7310 C.3   560  LYS560      0.1944
     74  C         49.3630  -11.7980   -5.9880 C.2   560  LYS560      0.2658
     75  O         50.3770  -11.5070   -6.6460 O.2   560  LYS560     -0.2711
     76  CB        48.2050   -9.6360   -5.1730 C.2   560  LYS560     -0.0002
     77  CG        46.7880   -9.8330   -5.7340 C.2   560  LYS560     -0.0270
     78  CD        46.1320   -8.6240   -6.3570 C.3   560  LYS560      0.0462
     79  CE        46.9300   -7.8640   -7.4430 C.3   560  LYS560      0.1140
     80  NZ        46.0810   -6.7910   -8.2250 N.3   560  LYS560     -0.1310
     81  N         48.5620  -12.8240   -6.3220 N.am  561  ILE561     -0.1974
     82  CA        48.6220  -13.4410   -7.6570 C.3   561  ILE561      0.1596
     83  C         47.2870  -13.2900   -8.3570 C.2   561  ILE561      0.2287
     84  O         46.3370  -13.8590   -7.9530 O.2   561  ILE561     -0.2864
     85  CB        49.0360  -14.9010   -7.6160 C.3   561  ILE561      0.0276
     86  CG1       50.2550  -15.0510   -6.7220 C.3   561  ILE561      0.0022
     87  CG2       49.2860  -15.4240   -8.9950 C.3   561  ILE561      0.0022
     88  CD1       50.5980  -16.3820   -6.3200 C.3   561  ILE561      0.0001
     89  N         52.0050  -11.1230  -10.6440 N.3   582  TYR582     -0.1227
     90  CA        52.4320  -11.0880   -9.2550 C.3   582  TYR582      0.1736
     91  C         52.6450   -9.6340   -8.7950 C.2   582  TYR582      0.2596
     92  O         53.1390   -8.7920   -9.5690 O.2   582  TYR582     -0.2718
     93  CB        53.7390  -11.8520   -9.0760 C.3   582  TYR582      0.0548
     94  CG        53.7140  -13.2470   -9.6450 C.ar  582  TYR582     -0.0200
     95  CD1       53.2940  -14.3070   -8.8750 C.ar  582  TYR582     -0.0009
     96  CD2       54.0930  -13.4860  -10.9260 C.ar  582  TYR582     -0.0009
     97  CE1       53.2330  -15.5950   -9.3730 C.ar  582  TYR582      0.0417
     98  CE2       54.0540  -14.7840  -11.4680 C.ar  582  TYR582      0.0417
     99  CZ        53.6270  -15.8400  -10.6790 C.ar  582  TYR582      0.1957
    100  OH        53.5720  -17.1480  -11.1820 O.3   582  TYR582     -0.2866
    101  N         52.2200   -9.3550   -7.5650 N.am  583  THR583     -0.1939
    102  CA        52.4720   -8.0750   -6.9270 C.3   583  THR583      0.2028
    103  C         52.9390   -8.2900   -5.5140 C.2   583  THR583      0.2642
    104  O         52.4190   -9.1660   -4.8060 O.2   583  THR583     -0.2714
    105  CB        51.2110   -7.1650   -6.9100 C.3   583  THR583      0.1808
    106  OG1       50.4440   -7.4340   -8.0710 O.3   583  THR583     -0.2208
    107  CG2       51.5770   -5.6570   -6.9440 C.3   583  THR583      0.0379
    108  N         53.9540   -7.5030   -5.1280 N.am  584  LEU584     -0.1977
    109  CA        54.4250   -7.3790   -3.7240 C.3   584  LEU584      0.1596
    110  C         54.3510   -5.9530   -3.3440 C.2   584  LEU584      0.2287
    111  O         54.9160   -5.1410   -4.0530 O.2   584  LEU584     -0.2864
    112  CB        55.8770   -7.7420   -3.6330 C.3   584  LEU584      0.0297
    113  CG        56.3420   -8.4740   -2.4080 C.3   584  LEU584      0.0022
    114  CD1       55.9020   -9.9040   -2.6680 C.3   584  LEU584      0.0001
    115  CD2       57.8680   -8.3780   -2.2280 C.3   584  LEU584      0.0001
@<TRIPOS>BOND
     1    31    30    2
     2    32    30   am
     3    30    29    1
     4    29    26    1
     5    26    27    1
     6    26    25    1
     7    28    27    2
     8    38    37    1
     9    27    33   am
    10    37    34    1
    11    25    21   am
    12    33    34    1
    13    34    35    1
    14    21    22    2
    15    21    20    1
    16    35    36    2
    17    23    20    1
    18    23    24    1
    19    20    19    1
    20    19    17   am
    21    18    17    2
    22    98    96   ar
    23    98    99   ar
    24   100    99    1
    25    17    16    1
    26    96    94   ar
    27    99    97   ar
    28    89    90    1
    29    16    15    1
    30    94    93    1
    31    94    95   ar
    32    92    91    2
    33    97    95   ar
    34    90    93    1
    35    90    91    1
    36    15     3   am
    37    87    85    1
    38    91   101   am
    39    83    84    2
    40    83    82    1
    41    80    79    1
    42   106   105    1
    43     3     2    1
    44     3     4    2
    45    82    85    1
    46    82    81    1
    47    85    86    1
    48   101   102    1
    49     7     6   ar
    50     7     9   ar
    51    79    78    1
    52     2     5    1
    53     2     1    1
    54     5     6    1
    55   107   105    1
    56   102   105    1
    57   102   103    1
    58    86    88    1
    59     6     8   ar
    60     9    10   ar
    61    75    74    2
    62    78    77    1
    63    81    74   am
    64    74    73    1
    65    53    54    1
    66    77    76    2
    67   103   108   am
    68   103   104    2
    69    10     8   ar
    70    10    12   ar
    71     8    11   ar
    72    76    73    1
    73   108   109    1
    74    73    72    1
    75    56    55    2
    76    57    54    1
    77    57    58    1
    78    54    55    1
    79    12    14   ar
    80    11    13   ar
    81   111   110    2
    82    72    70   am
    83   109   112    1
    84   109   110    1
    85   112   113    1
    86    60    58    1
    87    14    13   ar
    88    58    59    1
    89   114   113    1
    90    70    69    1
    91    70    71    2
    92   113   115    1
    93    69    68    1
    94    61    62    1
    95    51    49   ar
    96    51    52   ar
    97    66    65    1
    98    64    63    2
    99    49    46   ar
   100    62    65    1
   101    62    63    1
   102    65    67    1
   103    52    50   ar
   104    41    40    1
   105    41    42    2
   106    46    44   ar
   107    46    48   ar
   108    40    43    1
   109    40    39    1
   110    43    44    1
   111    50    48   ar
   112    44    45   ar
   113    48    47   ar
   114    45    47   ar
