@<TRIPOS>MOLECULE
tmp/2gskA02.pdb
 71 66 0 0 0
SMALL
GASTEIGER

@<TRIPOS>ATOM
      1  N         18.6730   17.9300   13.1030 N.3   256  LEU256     -0.1231
      2  CA        17.5840   17.5740   12.2010 C.3   256  LEU256      0.1693
      3  C         17.7430   18.0870   10.7470 C.2   256  LEU256      0.2591
      4  O         17.1730   17.4990    9.8180 O.2   256  LEU256     -0.2718
      5  CB        16.2430   18.0090   12.8030 C.3   256  LEU256      0.0284
      6  CG        15.7280   17.1960   14.0260 C.3   256  LEU256      0.0019
      7  CD1       15.9140   15.6450   13.9840 C.3   256  LEU256      0.0001
      8  CD2       16.3720   17.7170   15.2810 C.3   256  LEU256      0.0001
      9  N         18.5290   19.1440   10.5520 N.am  257  ILE257     -0.1980
     10  CA        18.7480   19.7290    9.2380 C.3   257  ILE257      0.1595
     11  C         20.2040   19.7040    8.8490 C.2   257  ILE257      0.2287
     12  O         21.0930   20.0280    9.6460 O.2   257  ILE257     -0.2864
     13  CB        18.2910   21.1860    9.1600 C.3   257  ILE257      0.0276
     14  CG1       16.8000   21.2740    9.5080 C.3   257  ILE257      0.0022
     15  CG2       18.5000   21.6960    7.7690 C.3   257  ILE257      0.0022
     16  CD1       16.1780   22.5400    9.0610 C.3   257  ILE257      0.0001
     17  N         19.8800   19.8570    0.6400 N.3   298  ASN298     -0.1240
     18  CA        19.3420   19.9840    1.9600 C.3   298  ASN298      0.1653
     19  C         18.5770   18.7200    2.3280 C.2   298  ASN298      0.2266
     20  O         17.9880   18.0470    1.4630 O.2   298  ASN298     -0.2867
     21  CB        18.4000   21.2050    2.0440 C.3   298  ASN298      0.1155
     22  CG        19.1340   22.5260    1.7480 C.2   298  ASN298      0.2627
     23  OD1       19.6980   23.1670    2.6680 O.2   298  ASN298     -0.2716
     24  ND2       19.1360   22.9460    0.4440 N.am  298  ASN298     -0.0877
     25  N         16.2210   17.1860    5.7700 N.3   300  VAL300     -0.1231
     26  CA        15.5270   17.3640    7.0410 C.3   300  VAL300      0.1692
     27  C         15.0500   16.0100    7.5910 C.2   300  VAL300      0.2592
     28  O         14.3560   15.2960    6.8740 O.2   300  VAL300     -0.2718
     29  CB        14.2400   18.1500    6.7890 C.3   300  VAL300      0.0266
     30  CG1       13.6160   18.5310    8.0530 C.3   300  VAL300      0.0020
     31  CG2       14.5670   19.3310    6.0580 C.3   300  VAL300      0.0020
     32  N         15.4080   15.6520    8.8310 N.am  301  ILE301     -0.1966
     33  CA        14.9150   14.4510    9.4530 C.3   301  ILE301      0.1727
     34  C         13.4550   14.6660    9.7970 C.2   301  ILE301      0.2616
     35  O         13.0790   15.7050   10.3500 O.2   301  ILE301     -0.2715
     36  CB        15.7700   14.0670   10.6710 C.3   301  ILE301      0.0290
     37  CG1       17.1790   13.7680   10.1550 C.3   301  ILE301      0.0022
     38  CG2       15.2710   12.7670   11.3880 C.3   301  ILE301      0.0023
     39  CD1       18.2130   14.6670   10.7790 C.3   301  ILE301      0.0001
     40  N         12.6340   13.7020    9.4180 N.am  302  VAL302     -0.1977
     41  CA        11.2060   13.7550    9.6300 C.3   302  VAL302      0.1596
     42  C         10.8020   12.3580   10.0530 C.2   302  VAL302      0.2287
     43  O         10.7580   11.4370    9.2500 O.2   302  VAL302     -0.2864
     44  CB        10.4040   14.1260    8.3600 C.3   302  VAL302      0.0276
     45  CG1        8.8910   14.2800    8.7240 C.3   302  VAL302      0.0022
     46  CG2       10.9620   15.4190    7.7110 C.3   302  VAL302      0.0022
     47  N         13.1030   14.0940    4.3770 N.3   307  ILE307     -0.1231
     48  CA        12.8020   14.7360    3.1050 C.3   307  ILE307      0.1692
     49  C         14.0480   15.4930    2.6760 C.2   307  ILE307      0.2593
     50  O         14.6500   16.2320    3.4510 O.2   307  ILE307     -0.2718
     51  CB        11.7490   15.7880    3.2400 C.3   307  ILE307      0.0266
     52  CG1       10.3930   15.1890    3.5800 C.3   307  ILE307      0.0019
     53  CG2       11.6750   16.6680    1.9080 C.3   307  ILE307      0.0020
     54  CD1        9.5270   16.3010    4.0170 C.3   307  ILE307      0.0001
     55  N         14.4150   15.3600    1.4230 N.am  308  GLY308     -0.1942
     56  CA        15.5380   16.1210    0.9400 C.3   308  GLY308      0.2014
     57  C         15.2080   16.9330   -0.3180 C.2   308  GLY308      0.2638
     58  O         14.3060   16.6200   -1.0720 O.2   308  GLY308     -0.2714
     59  N         15.9440   17.9840   -0.5580 N.am  309  ALA309     -0.1977
     60  CA        15.6410   18.8050   -1.7700 C.3   309  ALA309      0.1597
     61  C         16.8640   19.6080   -2.1010 C.2   309  ALA309      0.2287
     62  O         17.6420   19.9140   -1.2350 O.2   309  ALA309     -0.2864
     63  CB        14.4710   19.7570   -1.5320 C.3   309  ALA309      0.0319
     64  N         13.6320   16.5790   -5.4460 N.3   338  LEU338     -0.1245
     65  CA        12.9660   16.3720   -4.1750 C.3   338  LEU338      0.1561
     66  C         13.1170   14.8920   -3.8950 C.2   338  LEU338      0.2260
     67  O         13.0520   14.1440   -4.8410 O.2   338  LEU338     -0.2867
     68  CB        11.4790   16.7090   -4.3430 C.3   338  LEU338      0.0270
     69  CG        10.6300   16.9310   -3.1410 C.3   338  LEU338      0.0019
     70  CD1       11.1670   18.1730   -2.3250 C.3   338  LEU338      0.0001
     71  CD2        9.1310   17.1030   -3.5500 C.3   338  LEU338      0.0001
@<TRIPOS>BOND
     1    64    65    1
     2    67    66    2
     3    68    65    1
     4    68    69    1
     5    65    66    1
     6    71    69    1
     7    69    70    1
     8    61    60    1
     9    61    62    2
    10    60    63    1
    11    60    59    1
    12    58    57    2
    13    59    57   am
    14    57    56    1
    15    24    22   am
    16    17    18    1
    17    56    55    1
    18    55    49   am
    19    20    19    2
    20    22    21    1
    21    22    23    2
    22    53    51    1
    23    18    21    1
    24    18    19    1
    25    49    48    1
    26    49    50    2
    27    48    51    1
    28    48    47    1
    29    51    52    1
    30    52    54    1
    31    25    26    1
    32    31    29    1
    33    29    26    1
    34    29    30    1
    35    28    27    2
    36    26    27    1
    37    27    32   am
    38    46    44    1
    39    15    13    1
    40    44    45    1
    41    44    41    1
    42    32    33    1
    43    11    10    1
    44    11    12    2
    45    16    14    1
    46    13    10    1
    47    13    14    1
    48    10     9    1
    49    43    42    2
    50    40    41    1
    51    40    34   am
    52    33    34    1
    53    33    36    1
    54    41    42    1
    55    34    35    2
    56     4     3    2
    57    37    36    1
    58    37    39    1
    59     9     3   am
    60    36    38    1
    61     3     2    1
    62     2     5    1
    63     2     1    1
    64     5     6    1
    65     7     6    1
    66     6     8    1
