@<TRIPOS>MOLECULE
tmp/2gskA01.pdb
 113 111 0 0 0
SMALL
GASTEIGER

@<TRIPOS>ATOM
      1  N         53.0030    5.5560    4.2130 N.3   136  ILE136     -0.1231
      2  CA        53.9340    5.4360    3.1220 C.3   136  ILE136      0.1692
      3  C         53.8320    4.0220    2.5850 C.2   136  ILE136      0.2592
      4  O         53.9430    3.0560    3.3530 O.2   136  ILE136     -0.2718
      5  CB        55.3980    5.7810    3.4670 C.3   136  ILE136      0.0266
      6  CG1       56.2330    5.7480    2.1970 C.3   136  ILE136      0.0019
      7  CG2       56.0770    4.7320    4.2150 C.3   136  ILE136      0.0020
      8  CD1       57.7060    6.0260    2.3720 C.3   136  ILE136      0.0001
      9  N         53.6320    3.9120    1.2690 N.am  137  SER137     -0.1952
     10  CA        53.4610    2.6270    0.6000 C.3   137  SER137      0.1924
     11  C         54.1580    2.5280   -0.7440 C.2   137  SER137      0.2314
     12  O         54.4960    3.5180   -1.3820 O.2   137  SER137     -0.2863
     13  CB        52.0030    2.1590    0.5190 C.3   137  SER137      0.2116
     14  OG        51.1160    3.1680    0.1200 O.3   137  SER137     -0.2180
     15  N         54.6110    4.0900   -5.6730 N.3   148  TYR148     -0.1227
     16  CA        55.1490    4.7870   -4.5720 C.3   148  TYR148      0.1736
     17  C         54.0450    5.7640   -4.2270 C.2   148  TYR148      0.2595
     18  O         53.5650    6.4670   -5.1220 O.2   148  TYR148     -0.2718
     19  CB        56.3880    5.5780   -4.9610 C.3   148  TYR148      0.0548
     20  CG        57.4750    4.6900   -5.4790 C.ar  148  TYR148     -0.0200
     21  CD1       58.0080    3.6580   -4.6740 C.ar  148  TYR148     -0.0009
     22  CD2       57.9370    4.8240   -6.7660 C.ar  148  TYR148     -0.0009
     23  CE1       58.9660    2.7570   -5.1890 C.ar  148  TYR148      0.0417
     24  CE2       58.8820    3.9500   -7.2790 C.ar  148  TYR148      0.0417
     25  CZ        59.4010    2.9330   -6.4800 C.ar  148  TYR148      0.1957
     26  OH        60.3840    2.1080   -7.0050 O.3   148  TYR148     -0.2866
     27  N         53.6620    5.7910   -2.9610 N.am  149  ASP149     -0.1960
     28  CA        52.5860    6.6190   -2.4340 C.3   149  ASP149      0.1840
     29  C         52.9140    7.1320   -1.0420 C.2   149  ASP149      0.2621
     30  O         53.4740    6.3880   -0.2020 O.2   149  ASP149     -0.2715
     31  CB        51.2930    5.8250   -2.4180 C.3   149  ASP149      0.1450
     32  CG        50.0660    6.6930   -2.1640 C.2   149  ASP149      0.3671
     33  OD1       49.3210    6.9380   -3.1320 O.co2 149  ASP149     -0.2456
     34  OD2       49.8470    7.1620   -1.0050 O.co2 149  ASP149     -0.2456
     35  N         52.6370    8.4300   -0.8120 N.am  150  VAL150     -0.1977
     36  CA        52.6140    8.9960    0.5490 C.3   150  VAL150      0.1596
     37  C         51.3330    9.7930    0.7150 C.2   150  VAL150      0.2287
     38  O         50.8900   10.5000   -0.2050 O.2   150  VAL150     -0.2864
     39  CB        53.7920    9.8860    0.8450 C.3   150  VAL150      0.0276
     40  CG1       53.8370   10.2400    2.3350 C.3   150  VAL150      0.0022
     41  CG2       55.0930    9.2140    0.4090 C.3   150  VAL150      0.0022
     42  N         50.5030   12.2150   -2.4520 N.3   166  GLY166     -0.1210
     43  CA        51.1400   12.0050   -3.7510 C.3   166  GLY166      0.1956
     44  C         51.2730   10.5440   -4.1100 C.2   166  GLY166      0.2612
     45  O         51.5100    9.7350   -3.2330 O.2   166  GLY166     -0.2717
     46  N         51.0890   10.2130   -5.4000 N.am  167  ASP167     -0.1959
     47  CA        51.2200    8.8430   -5.9020 C.3   167  ASP167      0.1840
     48  C         51.8860    8.8150   -7.2340 C.2   167  ASP167      0.2622
     49  O         51.6110    9.6530   -8.1200 O.2   167  ASP167     -0.2715
     50  CB        49.8630    8.1280   -5.9720 C.3   167  ASP167      0.1450
     51  CG        49.9880    6.6680   -6.3500 C.2   167  ASP167      0.3671
     52  OD1       49.9110    6.3590   -7.5450 O.co2 167  ASP167     -0.2456
     53  OD2       50.1130    5.8140   -5.4350 O.co2 167  ASP167     -0.2456
     54  N         52.8040    7.8820   -7.3740 N.am  168  TYR168     -0.1974
     55  CA        53.3970    7.5290   -8.6680 C.3   168  TYR168      0.1639
     56  C         53.1860    6.0560   -8.9270 C.2   168  TYR168      0.2290
     57  O         53.6080    5.2540   -8.0640 O.2   168  TYR168     -0.2864
     58  CB        54.8460    7.7700   -8.6500 C.3   168  TYR168      0.0560
     59  CG        55.6170    7.3090   -9.8950 C.ar  168  TYR168     -0.0198
     60  CD1       55.9090    8.2080  -10.9170 C.ar  168  TYR168     -0.0009
     61  CD2       56.1140    6.0080   -9.9900 C.ar  168  TYR168     -0.0009
     62  CE1       56.6590    7.7970  -12.0240 C.ar  168  TYR168      0.0417
     63  CE2       56.8190    5.5720  -11.0920 C.ar  168  TYR168      0.0417
     64  CZ        57.1010    6.4670  -12.0940 C.ar  168  TYR168      0.1957
     65  OH        57.8090    6.0070  -13.1890 O.3   168  TYR168     -0.2866
     66  N         50.7270    9.8020  -12.5220 N.3   196  LYS196     -0.1231
     67  CA        51.2380   10.5950  -11.3930 C.3   196  LYS196      0.1693
     68  C         50.0580   11.3850  -10.8340 C.2   196  LYS196      0.2593
     69  O         49.3450   12.0150  -11.6270 O.2   196  LYS196     -0.2718
     70  CB        52.2770   11.6010  -11.8570 C.3   196  LYS196      0.0285
     71  CG        53.5910   11.0060  -12.5170 C.3   196  LYS196      0.0035
     72  CD        54.5750   12.0810  -13.1210 C.3   196  LYS196      0.0206
     73  CE        54.1770   12.5360  -14.5460 C.3   196  LYS196      0.1093
     74  NZ        54.2640   14.0570  -14.7710 N.3   196  LYS196     -0.1314
     75  N         49.8620   11.3790   -9.5020 N.am  197  THR197     -0.1939
     76  CA        48.7480   12.0900   -8.8280 C.3   197  THR197      0.2028
     77  C         49.1830   12.9530   -7.6860 C.2   197  THR197      0.2642
     78  O         50.1050   12.5620   -6.9260 O.2   197  THR197     -0.2714
     79  CB        47.7300   11.0960   -8.2520 C.3   197  THR197      0.1808
     80  OG1       47.4920   10.1420   -9.2760 O.3   197  THR197     -0.2208
     81  CG2       46.3370   11.7810   -7.7940 C.3   197  THR197      0.0379
     82  N         48.4580   14.0360   -7.4850 N.am  198  LEU198     -0.1977
     83  CA        48.6900   14.9140   -6.3580 C.3   198  LEU198      0.1596
     84  C         47.3640   15.4100   -5.8070 C.2   198  LEU198      0.2287
     85  O         46.4690   15.7690   -6.5670 O.2   198  LEU198     -0.2864
     86  CB        49.5670   16.0940   -6.8630 C.3   198  LEU198      0.0297
     87  CG        50.5420   16.6890   -5.8980 C.3   198  LEU198      0.0022
     88  CD1       51.7410   15.6830   -5.7310 C.3   198  LEU198      0.0001
     89  CD2       50.9480   18.1060   -6.4040 C.3   198  LEU198      0.0001
     90  N         44.9900   16.7120   -9.0690 N.3   218  GLY218     -0.1210
     91  CA        45.1480   16.3870  -10.4420 C.3   218  GLY218      0.1956
     92  C         46.0250   15.1670  -10.6680 C.2   218  GLY218      0.2612
     93  O         46.7360   14.6770   -9.7530 O.2   218  GLY218     -0.2717
     94  N         45.9470   14.6680  -11.8860 N.am  219  TYR219     -0.1962
     95  CA        46.7990   13.5990  -12.3490 C.3   219  TYR219      0.1771
     96  C         47.1140   13.7920  -13.8100 C.2   219  TYR219      0.2619
     97  O         46.4620   14.5530  -14.5140 O.2   219  TYR219     -0.2715
     98  CB        46.1670   12.2380  -12.0730 C.3   219  TYR219      0.0574
     99  CG        44.7180   12.1630  -12.4740 C.ar  219  TYR219     -0.0198
    100  CD1       43.7200   12.5750  -11.6550 C.ar  219  TYR219     -0.0009
    101  CD2       44.3590   11.6560  -13.7500 C.ar  219  TYR219     -0.0009
    102  CE1       42.4170   12.4860  -12.0190 C.ar  219  TYR219      0.0417
    103  CE2       43.0260   11.5790  -14.1530 C.ar  219  TYR219      0.0417
    104  CZ        42.0640   11.9660  -13.3240 C.ar  219  TYR219      0.1957
    105  OH        40.7370   11.8300  -13.7970 O.3   219  TYR219     -0.2866
    106  N         48.1460   13.0790  -14.2330 N.am  220  ASP220     -0.1971
    107  CA        48.7820   13.1700  -15.5360 C.3   220  ASP220      0.1709
    108  C         49.0260   11.7210  -15.8660 C.2   220  ASP220      0.2293
    109  O         49.7550   11.0790  -15.1130 O.2   220  ASP220     -0.2864
    110  CB        50.0670   13.9200  -15.2840 C.3   220  ASP220      0.1436
    111  CG        51.0510   13.8260  -16.3680 C.2   220  ASP220      0.3671
    112  OD1       50.8200   13.0530  -17.3290 O.co2 220  ASP220     -0.2456
    113  OD2       52.0820   14.6040  -16.2850 O.co2 220  ASP220     -0.2456
@<TRIPOS>BOND
     1   112   111   ar
     2   111   113   ar
     3   111   110    1
     4   108   107    1
     5   108   109    2
     6   107   110    1
     7   107   106    1
     8    74    73    1
     9    73    72    1
    10    97    96    2
    11   106    96   am
    12   103   101   ar
    13   103   104   ar
    14    96    95    1
    15   105   104    1
    16   101    99   ar
    17   104   102   ar
    18    65    64    1
    19    72    71    1
    20    66    67    1
    21    71    70    1
    22    99    98    1
    23    99   100   ar
    24    95    98    1
    25    95    94    1
    26    64    62   ar
    27    64    63   ar
    28    62    60   ar
    29   102   100   ar
    30    94    92   am
    31    70    67    1
    32    69    68    2
    33    67    68    1
    34    63    61   ar
    35    60    59   ar
    36    68    75   am
    37    92    91    1
    38    92    93    2
    39    91    90    1
    40    61    59   ar
    41    59    58    1
    42    75    76    1
    43    80    79    1
    44    56    55    1
    45    56    57    2
    46    76    79    1
    47    76    77    1
    48    55    58    1
    49    55    54    1
    50    79    81    1
    51    49    48    2
    52    77    82   am
    53    77    78    2
    54    52    51   ar
    55    82    83    1
    56    54    48   am
    57    24    22   ar
    58    24    25   ar
    59    48    47    1
    60    26    25    1
    61    86    83    1
    62    86    87    1
    63    22    20   ar
    64    85    84    2
    65    25    23   ar
    66    89    87    1
    67    83    84    1
    68    51    50    1
    69    51    53   ar
    70    50    47    1
    71    47    46    1
    72    87    88    1
    73    15    16    1
    74    20    19    1
    75    20    21   ar
    76    46    44   am
    77    23    21   ar
    78    18    17    2
    79    19    16    1
    80    16    17    1
    81    17    27   am
    82    44    43    1
    83    44    45    2
    84    43    42    1
    85    33    32   ar
    86    27    28    1
    87    28    31    1
    88    28    29    1
    89    31    32    1
    90    32    34   ar
    91    12    11    2
    92    29    35   am
    93    29    30    2
    94    35    36    1
    95    11    10    1
    96    38    37    2
    97    14    13    1
    98    41    39    1
    99    13    10    1
   100    36    37    1
   101    36    39    1
   102    10     9    1
   103    39    40    1
   104     9     3   am
   105     6     8    1
   106     6     5    1
   107     3     2    1
   108     3     4    2
   109     2     5    1
   110     2     1    1
   111     5     7    1
