@<TRIPOS>MOLECULE
tmp/2gspA00.pdb
 152 151 0 0 0
SMALL
GASTEIGER

@<TRIPOS>ATOM
      1  N         28.5960   35.4130   16.0740 N.3    36  ASN36      -0.1240
      2  CA        27.4290   34.7960   16.7000 C.3    36  ASN36       0.1653
      3  C         26.7170   33.8150   15.7850 C.2    36  ASN36       0.2266
      4  O         25.5910   33.3890   16.0610 O.2    36  ASN36      -0.2867
      5  CB        26.4700   35.8580   17.2410 C.3    36  ASN36       0.1155
      6  CG        26.9890   36.5090   18.5060 C.2    36  ASN36       0.2627
      7  OD1       26.7330   37.6850   18.7610 O.2    36  ASN36      -0.2716
      8  ND2       27.7180   35.7420   19.3110 N.am   36  ASN36      -0.0877
      9  N         25.3050   33.6700   12.3320 N.3    38  TYR38      -0.1241
     10  CA        24.0020   33.9340   11.7220 C.3    38  TYR38       0.1605
     11  C         23.9890   33.3510   10.3070 C.2    38  TYR38       0.2264
     12  O         25.0080   33.3610    9.6100 O.2    38  TYR38      -0.2867
     13  CB        23.7210   35.4440   11.6530 C.3    38  TYR38       0.0534
     14  CG        23.5500   36.1260   12.9940 C.ar   38  TYR38      -0.0201
     15  CD1       22.3430   36.0530   13.6900 C.ar   38  TYR38      -0.0009
     16  CD2       24.5970   36.8510   13.5650 C.ar   38  TYR38      -0.0009
     17  CE1       22.1860   36.6890   14.9280 C.ar   38  TYR38       0.0417
     18  CE2       24.4520   37.4850   14.7970 C.ar   38  TYR38       0.0417
     19  CZ        23.2470   37.3980   15.4690 C.ar   38  TYR38       0.1957
     20  OH        23.1130   38.0120   16.6900 O.3    38  TYR38      -0.2866
     21  N         20.8110   31.6230   12.6310 N.3    40  HIS40      -0.1226
     22  CA        20.7150   30.5090   13.5490 C.3    40  HIS40       0.1752
     23  C         19.2930   30.4300   14.1190 C.2    40  HIS40       0.2596
     24  O         18.4810   31.3390   13.9320 O.2    40  HIS40      -0.2718
     25  CB        21.7760   30.5600   14.6550 C.3    40  HIS40       0.0759
     26  CG        21.6940   31.7670   15.5350 C.ar   40  HIS40       0.0818
     27  ND1       22.7220   32.6790   15.6400 N.ar   40  HIS40      -0.2268
     28  CD2       20.7260   32.1850   16.3790 C.ar   40  HIS40       0.1154
     29  CE1       22.3830   33.6150   16.5100 C.ar   40  HIS40       0.1986
     30  NE2       21.1780   33.3370   16.9720 N.ar   40  HIS40      -0.2212
     31  N         19.0140   29.3050   14.7740 N.am   41  LYS41      -0.1966
     32  CA        17.7020   29.0650   15.3540 C.3    41  LYS41       0.1728
     33  C         17.2070   30.1390   16.3100 C.2    41  LYS41       0.2616
     34  O         17.9630   30.6670   17.1320 O.2    41  LYS41      -0.2715
     35  CB        17.6710   27.7090   16.0580 C.3    41  LYS41       0.0311
     36  CG        16.3620   27.3740   16.7390 C.3    41  LYS41       0.0038
     37  CD        16.3400   26.0100   17.4080 C.3    41  LYS41       0.0206
     38  CE        14.9270   25.5810   17.8010 C.3    41  LYS41       0.1093
     39  NZ        14.0500   25.3650   16.6050 N.3    41  LYS41      -0.1314
     40  N         15.9460   30.5130   16.1370 N.am   42  TYR42      -0.1960
     41  CA        15.2830   31.4780   16.9910 C.3    42  TYR42       0.1771
     42  C         14.2300   30.6390   17.7090 C.2    42  TYR42       0.2620
     43  O         13.3090   30.1230   17.0840 O.2    42  TYR42      -0.2715
     44  CB        14.6300   32.6010   16.1790 C.3    42  TYR42       0.0574
     45  CG        13.8280   33.5460   17.0400 C.ar   42  TYR42      -0.0198
     46  CD1       14.4540   34.3640   17.9830 C.ar   42  TYR42      -0.0009
     47  CD2       12.4390   33.5660   16.9660 C.ar   42  TYR42      -0.0009
     48  CE1       13.7090   35.1700   18.8380 C.ar   42  TYR42       0.0417
     49  CE2       11.6880   34.3630   17.8110 C.ar   42  TYR42       0.0417
     50  CZ        12.3260   35.1610   18.7490 C.ar   42  TYR42       0.1957
     51  OH        11.5670   35.9250   19.6040 O.3    42  TYR42      -0.2866
     52  N         14.3950   30.4820   19.0160 N.am   43  ASN43      -0.1958
     53  CA        13.4990   29.6520   19.8040 C.3    43  ASN43       0.1819
     54  C         12.1240   30.2110   20.1400 C.2    43  ASN43       0.2621
     55  O         11.2230   29.4540   20.5030 O.2    43  ASN43      -0.2715
     56  CB        14.2110   29.2230   21.0870 C.3    43  ASN43       0.1195
     57  CG        15.4830   28.4460   20.8090 C.2    43  ASN43       0.2630
     58  OD1       16.5890   28.9110   21.0930 O.2    43  ASN43      -0.2716
     59  ND2       15.3340   27.2570   20.2440 N.am   43  ASN43      -0.0877
     60  N         11.9580   31.5230   20.0050 N.am   44  ASN44      -0.1958
     61  CA        10.6980   32.1910   20.3170 C.3    44  ASN44       0.1819
     62  C         10.3200   32.0600   21.7970 C.2    44  ASN44       0.2621
     63  O          9.1840   31.7420   22.1380 O.2    44  ASN44      -0.2715
     64  CB         9.5680   31.6880   19.4080 C.3    44  ASN44       0.1195
     65  CG         8.3500   32.6030   19.4230 C.2    44  ASN44       0.2630
     66  OD1        8.4380   33.7620   19.8270 O.2    44  ASN44      -0.2716
     67  ND2        7.2110   32.0850   18.9810 N.am   44  ASN44      -0.0877
     68  N         11.2950   32.2970   22.6750 N.am   45  TYR45      -0.1960
     69  CA        11.0630   32.2540   24.1190 C.3    45  TYR45       0.1771
     70  C         10.0480   33.3390   24.4740 C.2    45  TYR45       0.2619
     71  O          9.2980   33.2120   25.4450 O.2    45  TYR45      -0.2715
     72  CB        12.3600   32.5320   24.8870 C.3    45  TYR45       0.0574
     73  CG        13.4240   31.4710   24.7520 C.ar   45  TYR45      -0.0198
     74  CD1       13.1020   30.1130   24.8060 C.ar   45  TYR45      -0.0009
     75  CD2       14.7630   31.8260   24.5980 C.ar   45  TYR45      -0.0009
     76  CE1       14.0910   29.1360   24.7150 C.ar   45  TYR45       0.0417
     77  CE2       15.7560   30.8620   24.5030 C.ar   45  TYR45       0.0417
     78  CZ        15.4150   29.5190   24.5650 C.ar   45  TYR45       0.1957
     79  OH        16.4100   28.5720   24.4880 O.3    45  TYR45      -0.2866
     80  N         10.0470   34.4110   23.6770 N.am   46  GLU46      -0.1977
     81  CA         9.1430   35.5430   23.8490 C.3    46  GLU46       0.1602
     82  C          7.6900   35.1390   23.6340 C.2    46  GLU46       0.2287
     83  O          6.7760   35.7980   24.1320 O.2    46  GLU46      -0.2864
     84  CB         9.4950   36.6660   22.8690 C.3    46  GLU46       0.0415
     85  CG        10.6720   37.5350   23.2820 C.3    46  GLU46       0.1163
     86  CD        12.0260   36.9030   23.0160 C.2    46  GLU46       0.3649
     87  OE1       12.1040   35.8750   22.3090 O.co2  46  GLU46      -0.2457
     88  OE2       13.0220   37.4580   23.5090 O.co2  46  GLU46      -0.2457
     89  N         16.8380   33.4310   12.8800 N.3    58  GLU58      -0.1245
     90  CA        16.9960   34.8760   12.9400 C.3    58  GLU58       0.1567
     91  C         18.1830   35.3130   12.1060 C.2    58  GLU58       0.2260
     92  O         19.1800   34.6030   12.0080 O.2    58  GLU58      -0.2867
     93  CB        17.1170   35.3730   14.3800 C.3    58  GLU58       0.0388
     94  CG        18.3670   34.9980   15.1100 C.3    58  GLU58       0.1160
     95  CD        18.4500   35.7000   16.4510 C.2    58  GLU58       0.3649
     96  OE1       18.8430   36.8850   16.4920 O.co2  58  GLU58      -0.2457
     97  OE2       18.0980   35.0720   17.4680 O.co2  58  GLU58      -0.2457
     98  N         25.7400   43.1090   14.7400 N.3    73  PRO73      -0.2116
     99  CA        24.4890   42.8720   14.0120 C.3    73  PRO73       0.1372
    100  C         23.4050   43.9170   14.3180 C.2    73  PRO73       0.2244
    101  O         22.3190   43.8740   13.7350 O.2    73  PRO73      -0.2868
    102  CB        24.0770   41.4880   14.5080 C.3    73  PRO73       0.0268
    103  CG        24.4930   41.5360   15.9500 C.3    73  PRO73       0.0207
    104  CD        25.8680   42.1770   15.8810 C.3    73  PRO73       0.0892
    105  N         16.3090   42.2300   13.6910 N.3    77  ARG77      -0.1245
    106  CA        16.3580   40.9120   13.0620 C.3    77  ARG77       0.1563
    107  C         15.1170   40.5770   12.2500 C.2    77  ARG77       0.2260
    108  O         14.0060   40.9960   12.5720 O.2    77  ARG77      -0.2867
    109  CB        16.4540   39.8060   14.1170 C.3    77  ARG77       0.0307
    110  CG        17.5090   39.9780   15.1860 C.3    77  ARG77       0.0489
    111  CD        18.8940   39.5790   14.7200 C.3    77  ARG77       0.2205
    112  NE        19.8420   39.6690   15.8280 N.pl3  77  ARG77      -0.0865
    113  CZ        20.5090   40.7730   16.1590 C.cat  77  ARG77       0.5346
    114  NH1       20.3550   41.8910   15.4650 N.pl3  77  ARG77       0.1354
    115  NH2       21.2870   40.7750   17.2310 N.pl3  77  ARG77       0.1354
    116  N         15.7160   44.2840   19.6570 N.3    92  HIS92      -0.1241
    117  CA        16.1470   44.3480   21.0470 C.3    92  HIS92       0.1621
    118  C         15.8000   45.7270   21.6180 C.2    92  HIS92       0.2264
    119  O         15.7870   45.9220   22.8340 O.2    92  HIS92      -0.2867
    120  CB        17.6610   44.1760   21.1490 C.3    92  HIS92       0.0745
    121  CG        18.1230   42.7620   21.0340 C.ar   92  HIS92       0.0817
    122  ND1       17.6350   41.7490   21.8340 N.ar   92  HIS92      -0.2268
    123  CD2       19.0620   42.1960   20.2420 C.ar   92  HIS92       0.1154
    124  CE1       18.2560   40.6230   21.5420 C.ar   92  HIS92       0.1986
    125  NE2       19.1280   40.8670   20.5770 N.ar   92  HIS92      -0.2212
    126  N         18.4730   40.9530   26.7010 N.3    98  ASN98      -0.1225
    127  CA        18.6000   40.4290   25.3480 C.3    98  ASN98       0.1785
    128  C         17.2830   39.8660   24.8260 C.2    98  ASN98       0.2597
    129  O         17.2660   38.9830   23.9700 O.2    98  ASN98      -0.2718
    130  CB        19.7200   39.3850   25.2750 C.3    98  ASN98       0.1169
    131  CG        21.1090   40.0170   25.3210 C.2    98  ASN98       0.2627
    132  OD1       21.9150   39.7070   26.2000 O.2    98  ASN98      -0.2716
    133  ND2       21.3870   40.9190   24.3780 N.am   98  ASN98      -0.0877
    134  N         16.1800   40.3830   25.3660 N.am   99  ASN99      -0.1960
    135  CA        14.8470   39.9780   24.9390 C.3    99  ASN99       0.1819
    136  C         14.5120   40.7380   23.6580 C.2    99  ASN99       0.2621
    137  O         15.2470   41.6370   23.2590 O.2    99  ASN99      -0.2715
    138  CB        13.8180   40.3140   26.0200 C.3    99  ASN99       0.1195
    139  CG        13.9720   39.4490   27.2600 C.2    99  ASN99       0.2630
    140  OD1       14.0640   38.2250   27.1690 O.2    99  ASN99      -0.2716
    141  ND2       14.0020   40.0820   28.4240 N.am   99  ASN99      -0.0877
    142  N         13.4060   40.3720   23.0220 N.am  100  PHE100     -0.1974
    143  CA        12.9680   41.0200   21.7900 C.3   100  PHE100      0.1639
    144  C         11.5200   41.4860   21.9160 C.2   100  PHE100      0.2290
    145  O         10.7600   40.9690   22.7390 O.2   100  PHE100     -0.2864
    146  CB        12.9890   40.0310   20.6080 C.3   100  PHE100      0.0560
    147  CG        14.3590   39.6600   20.1150 C.ar  100  PHE100     -0.0200
    148  CD1       15.0630   40.5080   19.2710 C.ar  100  PHE100     -0.0042
    149  CD2       14.9200   38.4340   20.4470 C.ar  100  PHE100     -0.0042
    150  CE1       16.3030   40.1380   18.7600 C.ar  100  PHE100     -0.0003
    151  CE2       16.1550   38.0570   19.9430 C.ar  100  PHE100     -0.0003
    152  CZ        16.8490   38.9080   19.1000 C.ar  100  PHE100     -0.0000
@<TRIPOS>BOND
     1    12    11    2
     2    11    10    1
     3    13    10    1
     4    13    14    1
     5    10     9    1
     6    92    91    2
     7    91    90    1
     8   107   108    2
     9   107   106    1
    10    21    22    1
    11    89    90    1
    12    90    93    1
    13    14    16   ar
    14    14    15   ar
    15   106   105    1
    16   106   109    1
    17    22    23    1
    18    22    25    1
    19    16    18   ar
    20    15    17   ar
    21   101   100    2
    22    24    23    2
    23    99   100    1
    24    99   102    1
    25    99    98    1
    26   109   110    1
    27    23    31   am
    28    93    94    1
    29   102   103    1
    30    25    26    1
    31   111   110    1
    32   111   112    1
    33    98   104    1
    34    31    32    1
    35    18    19   ar
    36    17    19   ar
    37    94    95    1
    38    32    35    1
    39    32    33    1
    40   114   113    1
    41    19    20    1
    42    26    27   ar
    43    26    28   ar
    44    27    29   ar
    45     3     4    2
    46     3     2    1
    47   112   113    2
    48   104   103    1
    49    35    36    1
    50     1     2    1
    51    40    33   am
    52    40    41    1
    53   113   115    1
    54    44    41    1
    55    44    45    1
    56    33    34    2
    57    28    30   ar
    58    95    96   ar
    59    95    97   ar
    60    29    30   ar
    61    39    38    1
    62     2     5    1
    63    36    37    1
    64    47    45   ar
    65    47    49   ar
    66    41    42    1
    67    45    46   ar
    68    43    42    2
    69     5     6    1
    70    37    38    1
    71    42    52   am
    72    49    50   ar
    73    46    48   ar
    74     6     7    2
    75     6     8   am
    76    50    48   ar
    77    50    51    1
    78   150   152   ar
    79   150   148   ar
    80    67    65   am
    81    52    53    1
    82   152   151   ar
    83   148   147   ar
    84    64    65    1
    85    64    61    1
    86    65    66    2
    87   116   117    1
    88    53    54    1
    89    53    56    1
    90   151   149   ar
    91    60    54   am
    92    60    61    1
    93   147   149   ar
    94   147   146    1
    95    54    55    2
    96   123   125   ar
    97   123   121   ar
    98    59    57   am
    99    61    62    1
   100   125   124   ar
   101   146   143    1
   102    57    56    1
   103    57    58    2
   104   121   120    1
   105   121   122   ar
   106   117   120    1
   107   117   118    1
   108   124   122   ar
   109   118   119    2
   110   143   144    1
   111   143   142    1
   112    62    63    2
   113    62    68   am
   114   144   145    2
   115    87    86   ar
   116    68    69    1
   117    84    85    1
   118    84    81    1
   119    86    85    1
   120    86    88   ar
   121   142   136   am
   122   137   136    2
   123    82    81    1
   124    82    83    2
   125   136   135    1
   126    80    81    1
   127    80    70   am
   128   129   128    2
   129    69    70    1
   130    69    72    1
   131   133   131   am
   132    70    71    2
   133    79    78    1
   134    77    78   ar
   135    77    75   ar
   136    78    76   ar
   137    75    73   ar
   138    76    74   ar
   139    73    74   ar
   140    73    72    1
   141   128   127    1
   142   128   134   am
   143   135   134    1
   144   135   138    1
   145   130   131    1
   146   130   127    1
   147   131   132    2
   148   127   126    1
   149   138   139    1
   150   140   139    2
   151   139   141   am
