@<TRIPOS>MOLECULE
tmp/2gstB00.pdb
 213 207 0 0 0
SMALL
GASTEIGER

@<TRIPOS>ATOM
      1  N         20.3530    7.7020    2.2040 N.3     6  TYR6       -0.1227
      2  CA        21.0170    7.5320    3.5710 C.3     6  TYR6        0.1736
      3  C         22.3050    6.8140    3.3750 C.2     6  TYR6        0.2595
      4  O         22.5990    6.3450    2.2360 O.2     6  TYR6       -0.2718
      5  CB        20.0500    6.7020    4.4720 C.3     6  TYR6        0.0548
      6  CG        20.5690    6.7040    5.9520 C.ar    6  TYR6       -0.0200
      7  CD1       20.6030    7.9480    6.5880 C.ar    6  TYR6       -0.0009
      8  CD2       21.0050    5.5550    6.5420 C.ar    6  TYR6       -0.0009
      9  CE1       21.0950    8.0130    7.9230 C.ar    6  TYR6        0.0417
     10  CE2       21.4620    5.6060    7.8950 C.ar    6  TYR6        0.0417
     11  CZ        21.5520    6.8320    8.4940 C.ar    6  TYR6        0.1957
     12  OH        21.9560    6.8900    9.8260 O.3     6  TYR6       -0.2866
     13  N         23.1550    6.6740    4.3900 N.am    7  TRP7       -0.1976
     14  CA        24.3850    5.8650    4.3630 C.3     7  TRP7        0.1640
     15  C         24.0270    4.4000    4.1930 C.2     7  TRP7        0.2290
     16  O         22.8590    4.0180    4.4410 O.2     7  TRP7       -0.2864
     17  CB        25.1620    6.1220    5.6880 C.3     7  TRP7        0.0576
     18  CG        25.6120    7.5300    5.8450 C.ar    7  TRP7        0.0006
     19  CD1       25.1290    8.4580    6.7280 C.ar    7  TRP7        0.0946
     20  CD2       26.5820    8.2220    5.0550 C.ar    7  TRP7        0.0152
     21  NE1       25.8040    9.6420    6.6240 N.ar    7  TRP7       -0.2442
     22  CE2       26.6530    9.5390    5.5270 C.ar    7  TRP7        0.0810
     23  CE3       27.3610    7.8170    3.9440 C.ar    7  TRP7        0.0012
     24  CZ2       27.5140   10.4790    4.9790 C.ar    7  TRP7        0.0191
     25  CZ3       28.1380    8.8060    3.3200 C.ar    7  TRP7        0.0001
     26  CH2       28.2340   10.0800    3.8510 C.ar    7  TRP7        0.0015
     27  N         24.2160    1.8440    5.9140 N.3     9  VAL9       -0.1245
     28  CA        24.2120    1.1950    7.2410 C.3     9  VAL9        0.1561
     29  C         22.7900    1.3660    7.8040 C.2     9  VAL9        0.2260
     30  O         21.9950    2.0890    7.2070 O.2     9  VAL9       -0.2867
     31  CB        25.1770    1.8760    8.1980 C.3     9  VAL9        0.0252
     32  CG1       26.6500    1.6490    7.9000 C.3     9  VAL9        0.0019
     33  CG2       24.8820    3.3280    8.4590 C.3     9  VAL9        0.0019
     34  N         21.9920    2.5310   10.9280 N.3    11  GLY11      -0.1210
     35  CA        21.9320    3.8930   11.5040 C.3    11  GLY11       0.1956
     36  C         20.5750    4.0980   12.2080 C.2    11  GLY11       0.2611
     37  O         20.1440    3.3050   13.0690 O.2    11  GLY11      -0.2717
     38  N         19.9820    5.2520   11.9390 N.am   12  LEU12      -0.1979
     39  CA        18.6950    5.6590   12.4410 C.3    12  LEU12       0.1596
     40  C         17.5980    5.5150   11.3890 C.2    12  LEU12       0.2287
     41  O         16.5110    6.0410   11.6380 O.2    12  LEU12      -0.2864
     42  CB        18.7090    7.0480   13.0750 C.3    12  LEU12       0.0297
     43  CG        19.3220    8.2590   12.4140 C.3    12  LEU12       0.0022
     44  CD1       18.6320    8.7540   11.1420 C.3    12  LEU12       0.0001
     45  CD2       19.3070    9.4480   13.4100 C.3    12  LEU12       0.0001
     46  N         30.7200    5.5520    2.7800 N.3    34  MET34      -0.1245
     47  CA        31.7560    6.3840    3.4110 C.3    34  MET34       0.1570
     48  C         33.0940    5.6570    3.1940 C.2    34  MET34       0.2261
     49  O         33.1140    4.4000    3.2310 O.2    34  MET34      -0.2867
     50  CB        31.4400    6.5330    4.8880 C.3    34  MET34       0.0387
     51  CG        32.3230    7.4330    5.6740 C.3    34  MET34       0.0595
     52  SD        31.3600    7.6240    7.2460 S.3    34  MET34      -0.1393
     53  CE        31.8350    9.3320    7.5800 C.3    34  MET34       0.0692
     54  N         33.6440   11.2920    2.6480 N.3    42  ARG42      -0.1245
     55  CA        32.1690   11.4340    2.5750 C.3    42  ARG42       0.1563
     56  C         31.7350   12.0360    1.2300 C.2    42  ARG42       0.2260
     57  O         30.5430   12.3760    1.0510 O.2    42  ARG42      -0.2867
     58  CB        31.6250   12.3030    3.6950 C.3    42  ARG42       0.0307
     59  CG        31.6560   11.7200    5.1090 C.3    42  ARG42       0.0489
     60  CD        30.7540   12.4860    6.0140 C.3    42  ARG42       0.2205
     61  NE        31.1620   13.8800    6.1820 N.pl3  42  ARG42      -0.0865
     62  CZ        30.2670   14.8710    6.2730 C.cat  42  ARG42       0.5346
     63  NH1       28.9330   14.7460    6.3460 N.pl3  42  ARG42       0.1354
     64  NH2       30.7630   16.1080    6.2260 N.pl3  42  ARG42       0.1354
     65  N         28.3540   11.9090   -0.8220 N.3    45  TRP45      -0.1241
     66  CA        27.1610   12.6660   -0.4060 C.3    45  TRP45       0.1605
     67  C         27.4000   14.1670   -0.5620 C.2    45  TRP45       0.2264
     68  O         26.5700   14.9610   -0.9960 O.2    45  TRP45      -0.2867
     69  CB        26.8370   12.2090    1.0450 C.3    45  TRP45       0.0550
     70  CG        26.1230   13.2140    1.8780 C.ar   45  TRP45       0.0003
     71  CD1       26.5260   13.7440    3.1090 C.ar   45  TRP45       0.0946
     72  CD2       24.8070   13.7390    1.6430 C.ar   45  TRP45       0.0152
     73  NE1       25.5810   14.6160    3.5460 N.ar   45  TRP45      -0.2442
     74  CE2       24.5070   14.6150    2.6960 C.ar   45  TRP45       0.0810
     75  CE3       23.9130   13.6150    0.5760 C.ar   45  TRP45       0.0012
     76  CZ2       23.3200   15.3440    2.7350 C.ar   45  TRP45       0.0191
     77  CZ3       22.7210   14.3210    0.6330 C.ar   45  TRP45       0.0001
     78  CH2       22.4050   15.1480    1.7040 C.ar   45  TRP45       0.0015
     79  N         25.1960   17.2290   -1.7670 N.3    49  LYS49      -0.1245
     80  CA        24.4370   17.7020   -0.5650 C.3    49  LYS49       0.1561
     81  C         23.5690   18.9260   -0.8080 C.2    49  LYS49       0.2260
     82  O         22.4030   18.9970   -0.4430 O.2    49  LYS49      -0.2867
     83  CB        25.3790   17.9590    0.5740 C.3    49  LYS49       0.0271
     84  CG        24.6260   18.3800    1.8650 C.3    49  LYS49       0.0035
     85  CD        25.6200   18.2680    3.0230 C.3    49  LYS49       0.0206
     86  CE        25.0520   19.1280    4.1880 C.3    49  LYS49       0.1093
     87  NZ        25.9870   18.8350    5.3540 N.3    49  LYS49      -0.1314
     88  N         19.6070   20.4440    4.1490 N.3    57  PRO57      -0.2102
     89  CA        20.2160   19.2110    3.6430 C.3    57  PRO57       0.1504
     90  C         20.6810   18.2530    4.7190 C.2    57  PRO57       0.2576
     91  O         21.4720   18.6410    5.6050 O.2    57  PRO57      -0.2718
     92  CB        21.3770   19.7660    2.7870 C.3    57  PRO57       0.0282
     93  CG        20.8380   21.0800    2.2760 C.3    57  PRO57       0.0208
     94  CD        20.0950   21.6670    3.5270 C.3    57  PRO57       0.0893
     95  N         20.3700   16.9740    4.5870 N.am   58  ASN58      -0.1961
     96  CA        20.8030   15.9930    5.6130 C.3    58  ASN58       0.1819
     97  C         20.4900   14.5800    5.1170 C.2    58  ASN58       0.2621
     98  O         19.7930   14.3800    4.1170 O.2    58  ASN58      -0.2715
     99  CB        19.9670   16.3580    6.8840 C.3    58  ASN58       0.1195
    100  CG        20.7810   16.1490    8.1580 C.2    58  ASN58       0.2630
    101  OD1       21.7280   15.3790    8.1870 O.2    58  ASN58      -0.2716
    102  ND2       20.3420   16.9070    9.2190 N.am   58  ASN58      -0.0877
    103  N         20.8980   13.6060    5.9090 N.am   59  LEU59      -0.1964
    104  CA        20.6350   12.1870    5.6420 C.3    59  LEU59       0.1713
    105  C         19.9870   11.6030    6.9230 C.2    59  LEU59       0.2458
    106  O         20.5940   11.8720    7.9720 O.2    59  LEU59      -0.2730
    107  CB        21.9530   11.4190    5.3870 C.3    59  LEU59       0.0310
    108  CG        22.6840   11.8460    4.0670 C.3    59  LEU59       0.0022
    109  CD1       23.9310   10.9390    4.0460 C.3    59  LEU59       0.0001
    110  CD2       21.7270   11.3720    2.9640 C.3    59  LEU59       0.0001
    111  N         18.8650   10.9580    6.8420 N.am   60  PRO60      -0.2727
    112  CA        18.1550   10.6100    5.6240 C.3    60  PRO60       0.1402
    113  C         17.3680   11.7530    5.0400 C.2    60  PRO60       0.2269
    114  O         16.9980   12.7580    5.6660 O.2    60  PRO60      -0.2865
    115  CB        17.1770    9.4990    6.0620 C.3    60  PRO60       0.0296
    116  CG        16.8090    9.8910    7.5010 C.3    60  PRO60       0.0237
    117  CD        18.2120   10.3590    8.0400 C.3    60  PRO60       0.0939
    118  N         14.9770   15.0990    8.1490 N.3    71  GLN71      -0.1231
    119  CA        14.6860   14.8940    9.6100 C.3    71  GLN71       0.1698
    120  C         13.9390   13.5830    9.6920 C.2    71  GLN71       0.2593
    121  O         12.7600   13.5440    9.2430 O.2    71  GLN71      -0.2718
    122  CB        14.0280   16.0740   10.3000 C.3    71  GLN71       0.0381
    123  CG        14.9390   17.3130   10.4670 C.3    71  GLN71       0.0905
    124  CD        16.0770   17.1240   11.4490 C.2    71  GLN71       0.2608
    125  OE1       16.0570   16.1380   12.1900 O.2    71  GLN71      -0.2717
    126  NE2       17.1790   17.7940   11.2260 N.am   71  GLN71      -0.0878
    127  N         14.5610   12.5350   10.1480 N.am   72  SER72      -0.1938
    128  CA        13.9830   11.1970   10.2300 C.3    72  SER72       0.2055
    129  C         12.5950   11.1740   10.8090 C.2    72  SER72       0.2643
    130  O         11.7340   10.4110   10.3830 O.2    72  SER72      -0.2714
    131  CB        14.9110   10.1650   10.8610 C.3    72  SER72       0.2130
    132  OG        15.1710   10.6150   12.2280 O.3    72  SER72      -0.2179
    133  N         12.3510   11.9250   11.8800 N.am   73  ASN73      -0.1971
    134  CA        11.0660   11.9440   12.5250 C.3    73  ASN73       0.1688
    135  C         10.0520   12.6170   11.5960 C.2    73  ASN73       0.2292
    136  O          8.9050   12.2010   11.6620 O.2    73  ASN73      -0.2864
    137  CB        11.0750   12.6380   13.8910 C.3    73  ASN73       0.1181
    138  CG        11.6930   11.7310   14.9770 C.2    73  ASN73       0.2629
    139  OD1       11.5860   10.5370   15.0320 O.2    73  ASN73      -0.2716
    140  ND2       12.1490   12.5420   15.9750 N.am   73  ASN73      -0.0877
    141  N         14.2030    8.5810   20.5100 N.3   104  MET104     -0.1245
    142  CA        15.3730    9.3790   20.0850 C.3   104  MET104      0.1570
    143  C         16.3880    9.5140   21.2450 C.2   104  MET104      0.2261
    144  O         17.6050    9.4190   21.0090 O.2   104  MET104     -0.2867
    145  CB        14.9500   10.6570   19.3790 C.3   104  MET104      0.0387
    146  CG        16.1190   11.4430   18.8020 C.3   104  MET104      0.0595
    147  SD        16.8840   10.5250   17.4020 S.3   104  MET104     -0.1393
    148  CE        15.6040   10.8480   16.1650 C.3   104  MET104      0.0692
    149  N         18.2520    6.3100   21.6940 N.3   107  ARG107     -0.1245
    150  CA        19.1480    6.1520   20.5350 C.3   107  ARG107      0.1563
    151  C         20.4120    6.9940   20.7400 C.2   107  ARG107      0.2260
    152  O         21.5180    6.4810   20.5600 O.2   107  ARG107     -0.2867
    153  CB        18.3880    6.6020   19.2560 C.3   107  ARG107      0.0307
    154  CG        19.0320    6.0910   17.9700 C.3   107  ARG107      0.0489
    155  CD        18.4030    6.6860   16.7350 C.3   107  ARG107      0.2205
    156  NE        17.0270    6.2830   16.5290 N.pl3 107  ARG107     -0.0865
    157  CZ        16.6510    5.0670   16.1640 C.cat 107  ARG107      0.5346
    158  NH1       17.5330    4.0690   16.0460 N.pl3 107  ARG107      0.1354
    159  NH2       15.3810    4.7440   15.9530 N.pl3 107  ARG107      0.1354
    160  N         24.3260    5.7990   20.7980 N.3   111  ILE111     -0.1245
    161  CA        25.2240    6.4570   19.8710 C.3   111  ILE111      0.1561
    162  C         26.4210    7.0680   20.6050 C.2   111  ILE111      0.2260
    163  O         27.5540    6.8440   20.1730 O.2   111  ILE111     -0.2867
    164  CB        24.4940    7.6210   19.1060 C.3   111  ILE111      0.0252
    165  CG1       23.4910    6.8980   18.1400 C.3   111  ILE111      0.0019
    166  CG2       25.4410    8.5900   18.3780 C.3   111  ILE111      0.0019
    167  CD1       22.5890    7.9480   17.4220 C.3   111  ILE111      0.0001
    168  N         30.3460    5.7670   19.9880 N.3   115  TYR115     -0.1241
    169  CA        31.3230    6.6350   19.3380 C.3   115  TYR115      0.1605
    170  C         32.3630    7.1760   20.3230 C.2   115  TYR115      0.2264
    171  O         33.1390    8.0880   19.9690 O.2   115  TYR115     -0.2867
    172  CB        30.6570    7.8550   18.6840 C.3   115  TYR115      0.0534
    173  CG        30.0640    7.5580   17.3250 C.ar  115  TYR115     -0.0201
    174  CD1       28.8440    6.9010   17.2270 C.ar  115  TYR115     -0.0009
    175  CD2       30.7840    7.8290   16.1490 C.ar  115  TYR115     -0.0009
    176  CE1       28.2690    6.6630   15.9660 C.ar  115  TYR115      0.0417
    177  CE2       30.2280    7.5510   14.8940 C.ar  115  TYR115      0.0417
    178  CZ        28.9820    6.9650   14.8150 C.ar  115  TYR115      0.1957
    179  OH        28.3130    6.7050   13.6200 O.3   115  TYR115     -0.2866
    180  N         17.7460   -2.9160   18.6750 N.3   165  GLN165     -0.1245
    181  CA        19.1540   -2.5200   18.7650 C.3   165  GLN165      0.1566
    182  C         19.6910   -2.7920   20.1830 C.2   165  GLN165      0.2260
    183  O         20.8170   -3.3550   20.2930 O.2   165  GLN165     -0.2867
    184  CB        19.4060   -1.0610   18.3790 C.3   165  GLN165      0.0367
    185  CG        19.2250   -0.8570   16.8640 C.3   165  GLN165      0.0905
    186  CD        19.6270    0.5260   16.4440 C.2   165  GLN165      0.2608
    187  OE1       20.6010    1.1410   16.9050 O.2   165  GLN165     -0.2717
    188  NE2       19.0720    1.0220   15.3340 N.am  165  GLN165     -0.0878
    189  N         25.1340   -1.2460   12.2160 N.3   207  ILE207     -0.1231
    190  CA        24.3120   -0.1510   12.7100 C.3   207  ILE207      0.1692
    191  C         24.9770    1.1890   12.4700 C.2   207  ILE207      0.2592
    192  O         24.3870    2.1980   12.0390 O.2   207  ILE207     -0.2718
    193  CB        23.9890   -0.3550   14.2590 C.3   207  ILE207      0.0266
    194  CG1       23.1240   -1.6110   14.3890 C.3   207  ILE207      0.0019
    195  CG2       23.2430    0.9130   14.7740 C.3   207  ILE207      0.0020
    196  CD1       23.0610   -2.3310   15.7570 C.3   207  ILE207      0.0001
    197  N         26.2780    1.1920   12.7600 N.am  208  PHE208     -0.1962
    198  CA        27.0960    2.4070   12.6540 C.3   208  PHE208      0.1771
    199  C         28.1040    2.3200   11.5100 C.2   208  PHE208      0.2620
    200  O         28.2740    1.2800   10.8680 O.2   208  PHE208     -0.2715
    201  CB        27.7700    2.6660   14.0150 C.3   208  PHE208      0.0574
    202  CG        26.8450    2.8130   15.1790 C.ar  208  PHE208     -0.0200
    203  CD1       26.1820    4.0430   15.3760 C.ar  208  PHE208     -0.0042
    204  CD2       26.6520    1.7910   16.0810 C.ar  208  PHE208     -0.0042
    205  CE1       25.3050    4.2190   16.4470 C.ar  208  PHE208     -0.0003
    206  CE2       25.7930    1.9410   17.1720 C.ar  208  PHE208     -0.0003
    207  CZ        25.1060    3.1530   17.3140 C.ar  208  PHE208     -0.0000
    208  N         28.7660    3.4260   11.3140 N.am  209  SER209     -0.1950
    209  CA        29.8760    3.6580   10.4030 C.3   209  SER209      0.1924
    210  C         31.1390    3.0270   11.0570 C.2   209  SER209      0.2314
    211  O         31.1050    2.4620   12.1390 O.2   209  SER209     -0.2863
    212  CB        30.1910    5.1160   10.0940 C.3   209  SER209      0.2116
    213  OG        30.4830    5.9440   11.1930 O.3   209  SER209     -0.2180
@<TRIPOS>BOND
     1    79    80    1
     2    68    67    2
     3    65    66    1
     4    81    80    1
     5    81    82    2
     6    80    83    1
     7    67    66    1
     8    66    69    1
     9    83    84    1
    10    75    77   ar
    11    75    72   ar
    12    77    78   ar
    13    69    70    1
    14    57    56    2
    15    56    55    1
    16    72    70   ar
    17    72    74   ar
    18    78    76   ar
    19    84    85    1
    20    70    71   ar
    21     1     2    1
    22     4     3    2
    23    93    92    1
    24    93    94    1
    25    55    54    1
    26    55    58    1
    27    74    76   ar
    28    74    73   ar
    29    46    47    1
    30    92    89    1
    31   110   108    1
    32    85    86    1
    33    71    73   ar
    34    48    49    2
    35    48    47    1
    36    25    26   ar
    37    25    23   ar
    38     3     2    1
    39     3    13   am
    40    47    50    1
    41    94    88    1
    42     2     5    1
    43    89    88    1
    44    89    90    1
    45    58    59    1
    46    26    24   ar
    47    23    20   ar
    48   109   108    1
    49   108   107    1
    50    98    97    2
    51    86    87    1
    52    15    14    1
    53    15    16    2
    54    14    13    1
    55    14    17    1
    56     5     6    1
    57    95    90   am
    58    95    96    1
    59    90    91    2
    60    50    51    1
    61    24    22   ar
    62   113   112    1
    63   113   114    2
    64    20    22   ar
    65    20    18   ar
    66    59    60    1
    67    97    96    1
    68    97   103   am
    69   107   104    1
    70    22    21   ar
    71    96    99    1
    72   112   115    1
    73   112   111    1
    74   104   103    1
    75   104   105    1
    76    51    52    1
    77    17    18    1
    78    18    19   ar
    79    27    28    1
    80     6     8   ar
    81     6     7   ar
    82    60    61    1
    83   115   116    1
    84    61    62    2
    85    64    62    1
    86    62    63    1
    87     8    10   ar
    88     7     9   ar
    89    21    19   ar
    90   111   105   am
    91   111   117    1
    92    99   100    1
    93   105   106    2
    94    30    29    2
    95    28    29    1
    96    28    31    1
    97    52    53    1
    98   116   117    1
    99    10    11   ar
   100    32    31    1
   101     9    11   ar
   102   118   119    1
   103   100   101    2
   104   100   102   am
   105    31    33    1
   106    11    12    1
   107   121   120    2
   108   119   120    1
   109   119   122    1
   110   120   127   am
   111   212   209    1
   112   212   213    1
   113   127   128    1
   114   128   129    1
   115   128   131    1
   116   122   123    1
   117   130   129    2
   118   209   210    1
   119   209   208    1
   120   123   124    1
   121   129   133   am
   122   131   132    1
   123   200   199    2
   124    34    35    1
   125   210   211    2
   126    44    43    1
   127   126   124   am
   128   208   199   am
   129    40    41    2
   130    40    39    1
   131   124   125    2
   132    35    36    1
   133   199   198    1
   134   135   136    2
   135   135   134    1
   136   133   134    1
   137    38    36   am
   138    38    39    1
   139   192   191    2
   140    36    37    2
   141   189   190    1
   142    43    42    1
   143    43    45    1
   144    39    42    1
   145   191   190    1
   146   191   197   am
   147   134   137    1
   148   198   197    1
   149   198   201    1
   150   190   193    1
   151   179   178    1
   152   137   138    1
   153   201   202    1
   154   193   194    1
   155   193   195    1
   156   194   196    1
   157   178   177   ar
   158   178   176   ar
   159   177   175   ar
   160   138   139    2
   161   138   140   am
   162   202   203   ar
   163   202   204   ar
   164   188   186   am
   165   203   205   ar
   166   159   157    1
   167   176   174   ar
   168   158   157    1
   169   204   206   ar
   170   175   173   ar
   171   157   156    2
   172   148   147    1
   173   186   185    1
   174   186   187    2
   175   205   207   ar
   176   156   155    1
   177   155   154    1
   178   185   184    1
   179   206   207   ar
   180   174   173   ar
   181   173   172    1
   182   147   146    1
   183   167   165    1
   184   154   153    1
   185   165   164    1
   186   166   164    1
   187   184   181    1
   188   180   181    1
   189   172   169    1
   190   181   182    1
   191   146   145    1
   192   164   161    1
   193   153   150    1
   194   169   168    1
   195   169   170    1
   196   145   142    1
   197   161   162    1
   198   161   160    1
   199   171   170    2
   200   142   141    1
   201   142   143    1
   202   163   162    2
   203   182   183    2
   204   150   151    1
   205   150   149    1
   206   152   151    2
   207   144   143    2
