@<TRIPOS>MOLECULE
tmp/2gt4C00.pdb
 104 102 0 0 0
SMALL
GASTEIGER

@<TRIPOS>ATOM
      1  N         90.2000   27.4540   34.5760 N.3    35  GLY35      -0.1210
      2  CA        90.7040   28.7510   34.1750 C.3    35  GLY35       0.1956
      3  C         90.7130   29.7240   35.3230 C.2    35  GLY35       0.2612
      4  O         89.7870   29.7400   36.1350 O.2    35  GLY35      -0.2717
      5  N         91.7560   30.5450   35.3960 N.am   36  LYS36      -0.1965
      6  CA        91.8540   31.5060   36.4760 C.3    36  LYS36       0.1728
      7  C         90.9080   32.6650   36.2530 C.2    36  LYS36       0.2616
      8  O         90.7980   33.2070   35.1510 O.2    36  LYS36      -0.2715
      9  CB        93.2820   32.0140   36.6820 C.3    36  LYS36       0.0311
     10  CG        93.4820   32.7280   38.0220 C.3    36  LYS36       0.0038
     11  CD        94.8760   33.3150   38.1420 C.3    36  LYS36       0.0206
     12  CE        95.0680   34.0170   39.4710 C.3    36  LYS36       0.1093
     13  NZ        94.9660   33.0640   40.6120 N.3    36  LYS36      -0.1314
     14  N         90.2270   33.0200   37.3360 N.am   37  ARG37      -0.1963
     15  CA        89.3480   34.1630   37.3990 C.3    37  ARG37       0.1729
     16  C         90.1470   35.4580   37.6150 C.2    37  ARG37       0.2617
     17  O         90.5260   35.7760   38.7420 O.2    37  ARG37      -0.2715
     18  CB        88.3630   33.9490   38.5390 C.3    37  ARG37       0.0348
     19  CG        87.2080   34.8240   38.4290 C.3    37  ARG37       0.0492
     20  CD        86.9020   34.8690   36.9670 C.3    37  ARG37       0.2205
     21  NE        85.9760   35.9100   36.6260 N.pl3  37  ARG37      -0.0865
     22  CZ        84.9840   36.3040   37.4000 C.cat  37  ARG37       0.5346
     23  NH1       84.7860   35.7410   38.5780 N.pl3  37  ARG37       0.1354
     24  NH2       84.1780   37.2590   36.9860 N.pl3  37  ARG37       0.1354
     25  N         90.3900   36.2000   36.5340 N.am   38  THR38      -0.1937
     26  CA        91.3160   37.3440   36.5600 C.3    38  THR38       0.2028
     27  C         90.6340   38.6870   36.8160 C.2    38  THR38       0.2642
     28  O         91.2920   39.7340   36.8860 O.2    38  THR38      -0.2714
     29  CB        92.1690   37.4410   35.2620 C.3    38  THR38       0.1808
     30  OG1       91.3130   37.6650   34.1320 O.3    38  THR38      -0.2208
     31  CG2       92.9880   36.1640   35.0460 C.3    38  THR38       0.0379
     32  N         89.3150   38.6480   36.9570 N.am   39  ASN39      -0.1957
     33  CA        88.5290   39.8330   37.2600 C.3    39  ASN39       0.1819
     34  C         87.4290   39.4840   38.2600 C.2    39  ASN39       0.2621
     35  O         87.2820   38.3200   38.6350 O.2    39  ASN39      -0.2715
     36  CB        87.9770   40.4590   35.9670 C.3    39  ASN39       0.1195
     37  CG        87.1520   39.4710   35.1100 C.2    39  ASN39       0.2630
     38  OD1       86.0070   39.7660   34.7870 O.2    39  ASN39      -0.2716
     39  ND2       87.7370   38.3210   34.7220 N.am   39  ASN39      -0.0877
     40  N         86.6870   40.4900   38.7180 N.am   40  ARG40      -0.1964
     41  CA        85.5110   40.2660   39.5650 C.3    40  ARG40       0.1714
     42  C         84.3790   39.6500   38.7370 C.2    40  ARG40       0.2458
     43  O         84.3320   39.8650   37.5160 O.2    40  ARG40      -0.2730
     44  CB        85.0170   41.5760   40.1700 C.3    40  ARG40       0.0347
     45  CG        85.9090   42.2360   41.2070 C.3    40  ARG40       0.0492
     46  CD        85.2000   43.5000   41.6740 C.3    40  ARG40       0.2205
     47  NE        85.8800   44.2040   42.7620 N.pl3  40  ARG40      -0.0865
     48  CZ        85.8590   43.8360   44.0420 C.cat  40  ARG40       0.5346
     49  NH1       85.2200   42.7370   44.4200 N.pl3  40  ARG40       0.1354
     50  NH2       86.5080   44.5630   44.9480 N.pl3  40  ARG40       0.1354
     51  N         83.4540   38.9010   39.3850 N.am   41  PRO41      -0.2727
     52  CA        83.3840   38.5720   40.8130 C.3    41  PRO41       0.1402
     53  C         84.2700   37.3710   41.1670 C.2    41  PRO41       0.2269
     54  O         84.7930   36.7150   40.2680 O.2    41  PRO41      -0.2865
     55  CB        81.8880   38.3600   41.0440 C.3    41  PRO41       0.0296
     56  CG        81.3720   37.8790   39.7300 C.3    41  PRO41       0.0237
     57  CD        82.2670   38.4820   38.6850 C.3    41  PRO41       0.0939
     58  N         83.1250   28.5720   31.0810 N.3    50  GLY50      -0.1225
     59  CA        81.7080   28.7470   30.7910 C.3    50  GLY50       0.1811
     60  C         81.3420   30.2010   30.5810 C.2    50  GLY50       0.2280
     61  O         82.1850   31.0690   30.7230 O.2    50  GLY50      -0.2866
     62  N         85.6940   29.9370   24.8040 N.3    70  GLU70      -0.1245
     63  CA        86.1910   29.4490   26.1010 C.3    70  GLU70       0.1567
     64  C         87.2140   28.3250   25.9720 C.2    70  GLU70       0.2260
     65  O         88.0860   28.1840   26.8310 O.2    70  GLU70      -0.2867
     66  CB        85.0410   29.0300   27.0350 C.3    70  GLU70       0.0388
     67  CG        84.0380   30.1520   27.3540 C.3    70  GLU70       0.1160
     68  CD        84.5230   31.1530   28.4000 C.2    70  GLU70       0.3649
     69  OE1       85.4570   30.8270   29.1750 O.co2  70  GLU70      -0.2457
     70  OE2       83.9330   32.2620   28.4700 O.co2  70  GLU70      -0.2457
     71  N         81.1170   42.1090   38.2660 N.3    94  PHE94      -0.1241
     72  CA        82.1720   42.5260   37.3370 C.3    94  PHE94       0.1605
     73  C         82.6690   43.9550   37.5650 C.2    94  PHE94       0.2264
     74  O         83.8300   44.2610   37.2910 O.2    94  PHE94      -0.2867
     75  CB        81.7040   42.3650   35.8770 C.3    94  PHE94       0.0534
     76  CG        80.6810   43.3900   35.4390 C.ar   94  PHE94      -0.0203
     77  CD1       79.3270   43.2320   35.7550 C.ar   94  PHE94      -0.0042
     78  CD2       81.0700   44.5130   34.7080 C.ar   94  PHE94      -0.0042
     79  CE1       78.3810   44.1770   35.3630 C.ar   94  PHE94      -0.0003
     80  CE2       80.1290   45.4720   34.3030 C.ar   94  PHE94      -0.0003
     81  CZ        78.7830   45.3020   34.6290 C.ar   94  PHE94      -0.0000
     82  N         73.9080   33.3220   38.6800 N.3   103  PHE103     -0.1241
     83  CA        73.7830   32.5180   37.4700 C.3   103  PHE103      0.1605
     84  C         72.8830   31.3100   37.7120 C.2   103  PHE103      0.2264
     85  O         72.9890   30.6540   38.7530 O.2   103  PHE103     -0.2867
     86  CB        75.1450   31.9400   37.0570 C.3   103  PHE103      0.0534
     87  CG        76.1270   32.9440   36.5370 C.ar  103  PHE103     -0.0203
     88  CD1       76.1820   33.2380   35.1730 C.ar  103  PHE103     -0.0042
     89  CD2       77.0560   33.5350   37.3910 C.ar  103  PHE103     -0.0042
     90  CE1       77.1240   34.1370   34.6700 C.ar  103  PHE103     -0.0003
     91  CE2       78.0040   34.4330   36.9030 C.ar  103  PHE103     -0.0003
     92  CZ        78.0380   34.7370   35.5400 C.ar  103  PHE103     -0.0000
     93  N         95.3320   28.9770   32.7400 N.3   127  TYR127     -0.1241
     94  CA        94.6890   27.7030   32.4060 C.3   127  TYR127      0.1605
     95  C         95.5530   26.5420   32.8980 C.2   127  TYR127      0.2264
     96  O         96.7790   26.6040   32.8050 O.2   127  TYR127     -0.2867
     97  CB        94.4810   27.5880   30.8900 C.3   127  TYR127      0.0534
     98  CG        93.3970   28.4960   30.3580 C.ar  127  TYR127     -0.0201
     99  CD1       92.0680   28.0740   30.3170 C.ar  127  TYR127     -0.0009
    100  CD2       93.6950   29.7780   29.9060 C.ar  127  TYR127     -0.0009
    101  CE1       91.0620   28.9090   29.8460 C.ar  127  TYR127      0.0417
    102  CE2       92.6990   30.6220   29.4330 C.ar  127  TYR127      0.0417
    103  CZ        91.3840   30.1810   29.4050 C.ar  127  TYR127      0.1957
    104  OH        90.3950   31.0160   28.9370 O.3   127  TYR127     -0.2866
@<TRIPOS>BOND
     1    62    63    1
     2    64    63    1
     3    64    65    2
     4    63    66    1
     5    66    67    1
     6    67    68    1
     7    68    70   ar
     8    68    69   ar
     9   104   103    1
    10   103   102   ar
    11   103   101   ar
    12   102   100   ar
    13   101    99   ar
    14   100    98   ar
    15    99    98   ar
    16    98    97    1
    17    60    61    2
    18    60    59    1
    19    59    58    1
    20    97    94    1
    21    94    93    1
    22    94    95    1
    23    96    95    2
    24    30    29    1
    25     2     1    1
    26     2     3    1
    27    80    81   ar
    28    80    78   ar
    29    81    79   ar
    30    90    88   ar
    31    90    92   ar
    32    78    76   ar
    33    39    37   am
    34    38    37    2
    35    31    29    1
    36    37    36    1
    37     8     7    2
    38    88    87   ar
    39    29    26    1
    40     3     5   am
    41     3     4    2
    42    79    77   ar
    43     5     6    1
    44    76    77   ar
    45    76    75    1
    46    92    91   ar
    47    75    72    1
    48    36    33    1
    49     7     6    1
    50     7    14   am
    51     6     9    1
    52    25    26    1
    53    25    16   am
    54    87    86    1
    55    87    89   ar
    56    26    27    1
    57    21    20    1
    58    21    22    2
    59     9    10    1
    60    27    28    2
    61    27    32   am
    62    91    89   ar
    63    32    33    1
    64    20    19    1
    65    24    22    1
    66    86    83    1
    67    33    34    1
    68    74    73    2
    69    14    15    1
    70    72    73    1
    71    72    71    1
    72    15    16    1
    73    15    18    1
    74    22    23    1
    75    83    84    1
    76    83    82    1
    77    43    42    2
    78    16    17    2
    79    84    85    2
    80    10    11    1
    81    11    12    1
    82    34    35    2
    83    34    40   am
    84    19    18    1
    85    57    51    1
    86    57    56    1
    87    40    41    1
    88    42    51   am
    89    42    41    1
    90    51    52    1
    91    12    13    1
    92    41    44    1
    93    56    55    1
    94    44    45    1
    95    54    53    2
    96    52    55    1
    97    52    53    1
    98    45    46    1
    99    46    47    1
   100    47    48    2
   101    48    49    1
   102    48    50    1
