@<TRIPOS>MOLECULE
tmp/2gteA00.pdb
 209 199 0 0 0
SMALL
GASTEIGER

@<TRIPOS>ATOM
      1  N         -9.5450   -5.8020    0.4130 N.3     6  PHE6       -0.1241
      2  CA        -8.9320   -4.8770   -0.5330 C.3     6  PHE6        0.1605
      3  C         -9.3970   -5.1590   -1.9590 C.2     6  PHE6        0.2264
      4  O         -9.7700   -4.2270   -2.6880 O.2     6  PHE6       -0.2867
      5  CB        -7.4060   -4.9650   -0.4450 C.3     6  PHE6        0.0534
      6  CG        -6.6810   -4.1230   -1.4610 C.ar    6  PHE6       -0.0203
      7  CD1       -6.6640   -2.7270   -1.3580 C.ar    6  PHE6       -0.0042
      8  CD2       -6.0070   -4.7340   -2.5090 C.ar    6  PHE6       -0.0042
      9  CE1       -5.9740   -1.9490   -2.3130 C.ar    6  PHE6       -0.0003
     10  CE2       -5.3210   -3.9720   -3.4580 C.ar    6  PHE6       -0.0003
     11  CZ        -5.3040   -2.5850   -3.3480 C.ar    6  PHE6       -0.0000
     12  N        -12.8250   -3.9710   -2.3850 N.3     9  SER9       -0.1202
     13  CA       -12.8960   -2.5130   -2.4340 C.3     9  SER9        0.2020
     14  C        -12.5880   -1.9760   -3.8260 C.2     9  SER9        0.2618
     15  O        -13.1850   -0.9860   -4.2440 O.2     9  SER9       -0.2717
     16  CB       -11.9720   -1.8660   -1.3940 C.3     9  SER9        0.2103
     17  OG       -10.6240   -1.8440   -1.8340 O.3     9  SER9       -0.2182
     18  N        -11.6760   -2.6210   -4.5450 N.am   10  LEU10      -0.1979
     19  CA       -11.3450   -2.1890   -5.9100 C.3    10  LEU10       0.1596
     20  C        -12.5740   -2.2000   -6.8190 C.2    10  LEU10       0.2287
     21  O        -12.8170   -1.2430   -7.5650 O.2    10  LEU10      -0.2864
     22  CB       -10.2510   -3.0460   -6.5380 C.3    10  LEU10       0.0297
     23  CG        -8.9020   -3.0710   -5.8150 C.3    10  LEU10       0.0022
     24  CD1       -7.9460   -3.9490   -6.5790 C.3    10  LEU10       0.0001
     25  CD2       -8.3320   -1.6640   -5.6290 C.3    10  LEU10       0.0001
     26  N        -15.2460    0.4770   -5.5940 N.3    13  ILE13      -0.1245
     27  CA       -14.8570    1.8250   -6.0070 C.3    13  ILE13       0.1561
     28  C        -15.0900    1.9660   -7.5170 C.2    13  ILE13       0.2260
     29  O        -15.6820    2.9570   -7.9670 O.2    13  ILE13      -0.2867
     30  CB       -13.3950    2.1380   -5.6090 C.3    13  ILE13       0.0252
     31  CG1      -13.2670    2.1960   -4.0790 C.3    13  ILE13       0.0019
     32  CG2      -12.9470    3.4460   -6.2280 C.3    13  ILE13       0.0019
     33  CD1      -11.8210    2.0930   -3.5620 C.3    13  ILE13       0.0001
     34  N        -12.1900    8.2310   -8.3500 N.3    51  VAL51      -0.1231
     35  CA       -11.6990    7.2050   -7.4360 C.3    51  VAL51       0.1692
     36  C        -11.0010    7.8690   -6.2430 C.2    51  VAL51       0.2592
     37  O        -11.2170    7.4950   -5.0730 O.2    51  VAL51      -0.2718
     38  CB       -10.6650    6.3180   -8.1750 C.3    51  VAL51       0.0266
     39  CG1       -9.8410    5.4850   -7.1920 C.3    51  VAL51       0.0020
     40  CG2      -11.3520    5.4090   -9.1930 C.3    51  VAL51       0.0020
     41  N        -10.1700    8.8650   -6.5380 N.am   52  SER52      -0.1952
     42  CA        -9.4250    9.5370   -5.4920 C.3    52  SER52       0.1924
     43  C        -10.3140   10.3940   -4.6090 C.2    52  SER52       0.2314
     44  O        -10.0600   10.5250   -3.4080 O.2    52  SER52      -0.2863
     45  CB        -8.2860   10.3490   -6.0930 C.3    52  SER52       0.2116
     46  OG        -7.4240    9.4890   -6.8080 O.3    52  SER52      -0.2180
     47  N        -11.7830    8.1940   -1.9840 N.3    55  ALA55      -0.1245
     48  CA       -10.8110    7.9650   -0.9170 C.3    55  ALA55       0.1562
     49  C        -10.5640    9.2090   -0.0760 C.2    55  ALA55       0.2260
     50  O         -9.9930    9.1210    1.0100 O.2    55  ALA55      -0.2867
     51  CB        -9.5130    7.4580   -1.5110 C.3    55  ALA55       0.0290
     52  N         -8.6060   11.7390   -0.8720 N.3    57  THR57      -0.1203
     53  CA        -7.1900   12.1130   -0.8940 C.3    57  THR57       0.1994
     54  C         -6.8300   13.1640   -1.9390 C.2    57  THR57       0.2617
     55  O         -5.6740   13.5600   -2.0550 O.2    57  THR57      -0.2717
     56  CB        -6.3130   10.8700   -1.0880 C.3    57  THR57       0.1784
     57  OG1       -6.8170   10.0900   -2.1740 O.3    57  THR57      -0.2211
     58  CG2       -6.4170    9.9410    0.1260 C.3    57  THR57       0.0376
     59  N         -7.8270   13.5940   -2.7090 N.am   58  VAL58      -0.1979
     60  CA        -7.6950   14.7880   -3.5480 C.3    58  VAL58       0.1595
     61  C         -8.8910   15.6850   -3.3020 C.2    58  VAL58       0.2287
     62  O         -9.9150   15.2450   -2.7650 O.2    58  VAL58      -0.2864
     63  CB        -7.5720   14.4580   -5.0810 C.3    58  VAL58       0.0276
     64  CG1       -6.3790   13.5430   -5.3690 C.3    58  VAL58       0.0022
     65  CG2       -8.8820   13.8820   -5.6360 C.3    58  VAL58       0.0022
     66  N         -3.4020   16.8120   -4.5030 N.3    64  PHE64      -0.1241
     67  CA        -3.2260   15.6220   -3.6880 C.3    64  PHE64       0.1605
     68  C         -2.9350   16.0010   -2.2430 C.2    64  PHE64       0.2264
     69  O         -2.1570   16.9160   -1.9780 O.2    64  PHE64      -0.2867
     70  CB        -2.0930   14.7950   -4.2730 C.3    64  PHE64       0.0534
     71  CG        -1.8240   13.4910   -3.5560 C.ar   64  PHE64      -0.0203
     72  CD1       -2.8010   12.5060   -3.4470 C.ar   64  PHE64      -0.0042
     73  CD2       -0.5670   13.2490   -3.0200 C.ar   64  PHE64      -0.0042
     74  CE1       -2.5240   11.2990   -2.8010 C.ar   64  PHE64      -0.0003
     75  CE2       -0.2860   12.0410   -2.3800 C.ar   64  PHE64      -0.0003
     76  CZ        -1.2700   11.0680   -2.2660 C.ar   64  PHE64      -0.0000
     77  N         -3.5700   10.9580    2.7840 N.3    69  ALA69      -0.1245
     78  CA        -3.3300    9.6630    2.1560 C.3    69  ALA69       0.1562
     79  C         -2.5130    8.7380    3.0630 C.2    69  ALA69       0.2260
     80  O         -2.8460    7.5530    3.2290 O.2    69  ALA69      -0.2867
     81  CB        -2.6340    9.8430    0.8030 C.3    69  ALA69       0.0290
     82  N         -3.7610    5.0730    4.9470 N.3    73  LEU73      -0.1245
     83  CA        -3.2300    3.7940    4.4590 C.3    73  LEU73       0.1561
     84  C         -3.7960    2.5470    5.1520 C.2    73  LEU73       0.2260
     85  O         -4.2000    1.6170    4.4590 O.2    73  LEU73      -0.2867
     86  CB        -1.6950    3.7850    4.4830 C.3    73  LEU73       0.0270
     87  CG        -1.0330    4.6750    3.4290 C.3    73  LEU73       0.0019
     88  CD1        0.4720    4.5450    3.5260 C.3    73  LEU73       0.0001
     89  CD2       -1.5130    4.3480    2.0230 C.3    73  LEU73       0.0001
     90  N         -7.0520    1.7770    3.5800 N.3    76  LEU76      -0.1231
     91  CA        -7.0860    1.6920    2.1200 C.3    76  LEU76       0.1693
     92  C         -6.3620    0.4810    1.5430 C.2    76  LEU76       0.2591
     93  O         -6.7270   -0.0040    0.4780 O.2    76  LEU76      -0.2718
     94  CB        -6.5250    2.9730    1.4880 C.3    76  LEU76       0.0284
     95  CG        -7.3260    4.2630    1.6830 C.3    76  LEU76       0.0019
     96  CD1       -6.4870    5.4880    1.3240 C.3    76  LEU76       0.0001
     97  CD2       -8.6330    4.2320    0.8770 C.3    76  LEU76       0.0001
     98  N         -5.3200    0.0060    2.2290 N.am   77  VAL77      -0.1980
     99  CA        -4.5300   -1.1120    1.7250 C.3    77  VAL77       0.1595
    100  C         -4.3020   -2.1510    2.8330 C.2    77  VAL77       0.2287
    101  O         -4.3490   -1.8050    4.0060 O.2    77  VAL77      -0.2864
    102  CB        -3.1610   -0.6410    1.1300 C.3    77  VAL77       0.0276
    103  CG1       -3.3460    0.4330    0.0450 C.3    77  VAL77       0.0022
    104  CG2       -2.2070   -0.1480    2.2320 C.3    77  VAL77       0.0022
    105  N          0.8840   -4.4680    2.0560 N.3    81  MET81      -0.1245
    106  CA         1.1260   -3.4060    1.0750 C.3    81  MET81       0.1570
    107  C          1.4310   -2.0560    1.7170 C.2    81  MET81       0.2261
    108  O          1.6420   -1.0790    1.0300 O.2    81  MET81      -0.2867
    109  CB        -0.1050   -3.2540    0.1830 C.3    81  MET81       0.0387
    110  CG        -0.2180   -4.3360   -0.8870 C.3    81  MET81       0.0595
    111  SD        -1.7940   -4.2670   -1.7780 S.3    81  MET81      -0.1393
    112  CE        -1.6290   -2.7560   -2.7560 C.3    81  MET81       0.0692
    113  N          5.1500   -0.3910    0.9880 N.3    84  MET84      -0.1230
    114  CA         5.2640   -0.0690   -0.4240 C.3    84  MET84       0.1702
    115  C          4.3700    1.1430   -0.7550 C.2    84  MET84       0.2593
    116  O          4.7930    2.0640   -1.4760 O.2    84  MET84      -0.2718
    117  CB         4.9120   -1.3110   -1.2600 C.3    84  MET84       0.0401
    118  CG         4.8430   -1.0920   -2.7570 C.3    84  MET84       0.0596
    119  SD         3.3390   -0.2590   -3.2910 S.3    84  MET84      -0.1393
    120  CE         2.0430   -1.5140   -3.0550 C.3    84  MET84       0.0692
    121  N          3.1630    1.1700   -0.1950 N.am   85  SER85      -0.1952
    122  CA         2.2300    2.2590   -0.4610 C.3    85  SER85       0.1924
    123  C          2.7110    3.5790    0.1380 C.2    85  SER85       0.2314
    124  O          2.5650    4.6340   -0.4890 O.2    85  SER85      -0.2863
    125  CB         0.8320    1.9200    0.0480 C.3    85  SER85       0.2116
    126  OG         0.3480    0.7310   -0.5610 O.3    85  SER85      -0.2180
    127  N          5.3290    4.9310   -2.1320 N.3    88  SER88      -0.1202
    128  CA         4.6750    5.4230   -3.3500 C.3    88  SER88       0.2020
    129  C          4.1060    6.8180   -3.1320 C.2    88  SER88       0.2618
    130  O          4.3260    7.7360   -3.9380 O.2    88  SER88      -0.2717
    131  CB         3.5520    4.4880   -3.7740 C.3    88  SER88       0.2103
    132  OG         4.0540    3.2160   -4.0960 O.3    88  SER88      -0.2182
    133  N          3.3740    6.9750   -2.0350 N.am   89  VAL89      -0.1979
    134  CA         2.8000    8.2700   -1.6910 C.3    89  VAL89       0.1595
    135  C          3.9110    9.3220   -1.5370 C.2    89  VAL89       0.2287
    136  O          3.8040   10.4190   -2.0870 O.2    89  VAL89      -0.2864
    137  CB         1.9150    8.1960   -0.4190 C.3    89  VAL89       0.0276
    138  CG1        1.5520    9.6000    0.0700 C.3    89  VAL89       0.0022
    139  CG2        0.6610    7.3620   -0.6920 C.3    89  VAL89       0.0022
    140  N         -4.6530   14.3620  -11.0240 N.3   106  VAL106     -0.1245
    141  CA        -4.8980   13.0810  -10.3490 C.3   106  VAL106      0.1561
    142  C         -4.3570   11.9140  -11.1660 C.2   106  VAL106      0.2260
    143  O         -3.6490   11.0270  -10.6260 O.2   106  VAL106     -0.2867
    144  CB        -6.3820   12.8500  -10.0090 C.3   106  VAL106      0.0252
    145  CG1       -6.5120   11.5810   -9.1560 C.3   106  VAL106      0.0019
    146  CG2       -6.9460   14.0520   -9.2600 C.3   106  VAL106      0.0019
    147  N         -0.6660   11.6750  -10.8140 N.3   109  THR109     -0.1203
    148  CA        -0.2980   11.1780   -9.4900 C.3   109  THR109      0.1994
    149  C         -0.4460    9.6540   -9.4420 C.2   109  THR109      0.2617
    150  O          0.4620    8.9440   -8.9770 O.2   109  THR109     -0.2717
    151  CB        -1.1680   11.8470   -8.4210 C.3   109  THR109      0.1784
    152  OG1       -0.9480   13.2660   -8.4540 O.3   109  THR109     -0.2211
    153  CG2       -0.7500   11.4060   -7.0180 C.3   109  THR109      0.0376
    154  N         -1.5700    9.1440   -9.9400 N.am  110  ALA110     -0.1979
    155  CA        -1.7830    7.6890   -9.9940 C.3   110  ALA110      0.1597
    156  C         -0.7190    7.0010  -10.8650 C.2   110  ALA110      0.2287
    157  O         -0.2090    5.9250  -10.5130 O.2   110  ALA110     -0.2864
    158  CB        -3.1810    7.3740  -10.5080 C.3   110  ALA110      0.0319
    159  N          2.3600    6.7910   -8.8720 N.3   113  PHE113     -0.1241
    160  CA         2.2890    5.6570   -7.9490 C.3   113  PHE113      0.1605
    161  C          2.6860    4.3770   -8.6650 C.2   113  PHE113      0.2264
    162  O          3.4330    3.5640   -8.1230 O.2   113  PHE113     -0.2867
    163  CB         0.8680    5.4120   -7.4120 C.3   113  PHE113      0.0534
    164  CG         0.3000    6.4960   -6.5080 C.ar  113  PHE113     -0.0203
    165  CD1        1.0980    7.3640   -5.7550 C.ar  113  PHE113     -0.0042
    166  CD2       -1.0830    6.5890   -6.3750 C.ar  113  PHE113     -0.0042
    167  CE1        0.5120    8.3370   -4.9120 C.ar  113  PHE113     -0.0003
    168  CE2       -1.6610    7.5350   -5.5450 C.ar  113  PHE113     -0.0003
    169  CZ        -0.8640    8.4160   -4.8110 C.ar  113  PHE113     -0.0000
    170  N          0.7820   -3.5450   -6.6350 N.3   121  PHE121     -0.1227
    171  CA         0.0070   -2.3900   -7.0710 C.3   121  PHE121      0.1736
    172  C         -1.2420   -2.7870   -7.8410 C.2   121  PHE121      0.2595
    173  O         -1.1860   -3.6140   -8.7470 O.2   121  PHE121     -0.2718
    174  CB         0.8530   -1.4370   -7.9220 C.3   121  PHE121      0.0547
    175  CG         0.1090   -0.2060   -8.3690 C.ar  121  PHE121     -0.0202
    176  CD1       -0.6500   -0.2110   -9.5360 C.ar  121  PHE121     -0.0042
    177  CD2        0.1530    0.9530   -7.6090 C.ar  121  PHE121     -0.0042
    178  CE1       -1.3420    0.9240   -9.9380 C.ar  121  PHE121     -0.0003
    179  CE2       -0.5360    2.0910   -8.0050 C.ar  121  PHE121     -0.0003
    180  CZ        -1.2800    2.0780   -9.1650 C.ar  121  PHE121     -0.0000
    181  N         -2.3590   -2.1620   -7.4750 N.am  122  MET122     -0.1965
    182  CA        -3.6100   -2.2910   -8.2100 C.3   122  MET122      0.1736
    183  C         -4.3840   -0.9690   -8.1360 C.2   122  MET122      0.2616
    184  O         -4.4070   -0.3170   -7.0940 O.2   122  MET122     -0.2715
    185  CB        -4.4500   -3.4390   -7.6410 C.3   122  MET122      0.0427
    186  CG        -3.9050   -4.8370   -7.9430 C.3   122  MET122      0.0599
    187  SD        -4.7590   -6.1390   -7.0260 S.3   122  MET122     -0.1393
    188  CE        -5.7680   -6.8720   -8.2910 C.3   122  MET122      0.0692
    189  N         -4.9940   -0.5590   -9.2480 N.am  123  TRP123     -0.1960
    190  CA        -5.8600    0.6220   -9.2480 C.3   123  TRP123      0.1756
    191  C         -7.3040    0.1550   -9.4050 C.2   123  TRP123      0.2461
    192  O         -7.5650   -0.7590  -10.1870 O.2   123  TRP123     -0.2730
    193  CB        -5.4800    1.5630  -10.3970 C.3   123  TRP123      0.0590
    194  CG        -6.2090    2.8800  -10.3340 C.ar  123  TRP123      0.0006
    195  CD1       -7.2760    3.2660  -11.0900 C.ar  123  TRP123      0.0946
    196  CD2       -5.9230    3.9750   -9.4540 C.ar  123  TRP123      0.0152
    197  NE1       -7.6850    4.5300  -10.7270 N.ar  123  TRP123     -0.2442
    198  CE2       -6.8640    4.9960   -9.7310 C.ar  123  TRP123      0.0810
    199  CE3       -4.9630    4.1980   -8.4510 C.ar  123  TRP123      0.0012
    200  CZ2       -6.8890    6.2090   -9.0330 C.ar  123  TRP123      0.0191
    201  CZ3       -4.9750    5.4110   -7.7580 C.ar  123  TRP123      0.0001
    202  CH2       -5.9260    6.4070   -8.0660 C.ar  123  TRP123      0.0015
    203  N         -8.2400    0.7610   -8.6750 N.am  124  PRO124     -0.2727
    204  CA        -9.6580    0.3890   -8.8090 C.3   124  PRO124      0.1402
    205  C        -10.1490    0.4810  -10.2500 C.2   124  PRO124      0.2269
    206  O         -9.8640    1.4630  -10.9460 O.2   124  PRO124     -0.2865
    207  CB       -10.3700    1.4290   -7.9560 C.3   124  PRO124      0.0296
    208  CG        -9.3720    1.7940   -6.9410 C.3   124  PRO124      0.0237
    209  CD        -8.0520    1.8230   -7.6670 C.3   124  PRO124      0.0939
@<TRIPOS>BOND
     1   142   143    2
     2   142   141    1
     3   195   197   ar
     4   195   194   ar
     5   140   141    1
     6   206   205    2
     7   156   157    2
     8   156   155    1
     9   147   148    1
    10   197   198   ar
    11   158   155    1
    12   193   194    1
    13   193   190    1
    14   141   144    1
    15   194   196   ar
    16   205   204    1
    17   192   191    2
    18   144   146    1
    19   144   145    1
    20   155   154    1
    21   154   149   am
    22   178   176   ar
    23   178   180   ar
    24   198   196   ar
    25   198   200   ar
    26   176   175   ar
    27   148   149    1
    28   148   151    1
    29   196   199   ar
    30   149   150    2
    31   191   190    1
    32   191   203   am
    33   189   190    1
    34   189   183   am
    35    40    38    1
    36   180   179   ar
    37   200   202   ar
    38   159   160    1
    39   204   203    1
    40   204   207    1
    41   173   172    2
    42   203   209    1
    43   161   162    2
    44   161   160    1
    45   152   151    1
    46   199   201   ar
    47   151   153    1
    48   175   174    1
    49   175   177   ar
    50    34    35    1
    51   188   187    1
    52   182   183    1
    53   182   185    1
    54   182   181    1
    55    38    35    1
    56    38    39    1
    57   183   184    2
    58   202   201   ar
    59   179   177   ar
    60    29    28    2
    61   207   208    1
    62   160   163    1
    63   186   185    1
    64   186   187    1
    65   174   171    1
    66   172   181   am
    67   172   171    1
    68   209   208    1
    69    21    20    2
    70    28    27    1
    71    35    36    1
    72   163   164    1
    73   171   170    1
    74    20    19    1
    75    46    45    1
    76    24    23    1
    77    22    19    1
    78    22    23    1
    79    41    36   am
    80    41    42    1
    81   164   166   ar
    82   164   165   ar
    83   166   168   ar
    84    36    37    2
    85    32    30    1
    86    45    42    1
    87    27    30    1
    88    27    26    1
    89    19    18    1
    90    23    25    1
    91   165   167   ar
    92    65    63    1
    93    30    31    1
    94   168   169   ar
    95    42    43    1
    96    64    63    1
    97    63    60    1
    98   167   169   ar
    99    43    44    2
   100    18    14   am
   101    66    67    1
   102    70    67    1
   103    70    71    1
   104    15    14    2
   105   132   131    1
   106    31    33    1
   107   130   129    2
   108    14    13    1
   109   131   128    1
   110    67    68    1
   111    71    72   ar
   112    71    73   ar
   113    60    61    1
   114    60    59    1
   115    10    11   ar
   116    10     8   ar
   117    72    74   ar
   118   128   129    1
   119   128   127    1
   120    11     9   ar
   121    61    62    2
   122   119   120    1
   123   119   118    1
   124   129   133   am
   125    73    75   ar
   126    74    76   ar
   127   118   117    1
   128   112   111    1
   129    59    54   am
   130     4     3    2
   131     8     6   ar
   132    13    12    1
   133    13    16    1
   134    75    76   ar
   135     9     7   ar
   136    68    69    2
   137    57    56    1
   138   136   135    2
   139    55    54    2
   140   133   134    1
   141    47    48    1
   142     3     2    1
   143    54    53    1
   144    17    16    1
   145   111   110    1
   146   134   135    1
   147   134   137    1
   148    51    48    1
   149   116   115    2
   150     6     7   ar
   151     6     5    1
   152   117   114    1
   153    56    53    1
   154    56    58    1
   155    48    49    1
   156    53    52    1
   157   110   109    1
   158   115   114    1
   159   115   121   am
   160   139   137    1
   161   126   125    1
   162     2     5    1
   163     2     1    1
   164   124   123    2
   165   122   121    1
   166   122   125    1
   167   122   123    1
   168   114   113    1
   169   137   138    1
   170    49    50    2
   171   103   102    1
   172   109   106    1
   173    93    92    2
   174    81    78    1
   175    97    95    1
   176   108   107    2
   177   106   107    1
   178   106   105    1
   179   102    99    1
   180   102   104    1
   181    96    95    1
   182    94    95    1
   183    94    91    1
   184    92    91    1
   185    92    98   am
   186    99    98    1
   187    99   100    1
   188    89    87    1
   189    91    90    1
   190    78    77    1
   191    78    79    1
   192   100   101    2
   193    79    80    2
   194    87    88    1
   195    87    86    1
   196    85    84    2
   197    83    86    1
   198    83    82    1
   199    83    84    1
