@<TRIPOS>MOLECULE
tmp/2gtmA00.pdb
 194 183 0 0 0
SMALL
GASTEIGER

@<TRIPOS>ATOM
      1  N          7.9720   -1.2440   27.7270 N.3    26  VAL26      -0.1245
      2  CA         6.5730   -0.8980   27.8590 C.3    26  VAL26       0.1561
      3  C          5.7770   -2.1980   28.0040 C.2    26  VAL26       0.2260
      4  O          4.7570   -2.2410   28.7190 O.2    26  VAL26      -0.2867
      5  CB         6.1090   -0.0720   26.6440 C.3    26  VAL26       0.0252
      6  CG1        4.6030    0.0190   26.5690 C.3    26  VAL26       0.0019
      7  CG2        6.7000    1.2640   26.6850 C.3    26  VAL26       0.0019
      8  N          8.2020   -4.1630   23.1570 N.3    34  VAL34      -0.1245
      9  CA         8.1410   -2.7500   22.8750 C.3    34  VAL34       0.1561
     10  C          8.8170   -1.9780   24.0050 C.2    34  VAL34       0.2260
     11  O          8.5540   -2.2710   25.1850 O.2    34  VAL34      -0.2867
     12  CB         6.6830   -2.3160   22.7740 C.3    34  VAL34       0.0252
     13  CG1        6.5630   -0.8380   22.5840 C.3    34  VAL34       0.0019
     14  CG2        5.9780   -3.0660   21.5920 C.3    34  VAL34       0.0019
     15  N          7.9050    4.8950   20.2960 N.3    47  ALA47      -0.1231
     16  CA         7.8740    3.5140   20.7530 C.3    47  ALA47       0.1694
     17  C          8.6430    2.7060   19.7430 C.2    47  ALA47       0.2592
     18  O          8.5560    2.9950   18.5530 O.2    47  ALA47      -0.2718
     19  CB         6.4240    2.9860   20.9130 C.3    47  ALA47       0.0304
     20  N          9.4070    1.7260   20.2210 N.am   48  VAL48      -0.1966
     21  CA        10.2150    0.8650   19.3750 C.3    48  VAL48       0.1727
     22  C          9.8110   -0.5630   19.6370 C.2    48  VAL48       0.2616
     23  O          9.7310   -1.0220   20.7940 O.2    48  VAL48      -0.2715
     24  CB        11.7320    1.0040   19.5610 C.3    48  VAL48       0.0290
     25  CG1       12.5210    0.1860   18.4820 C.3    48  VAL48       0.0023
     26  CG2       12.1620    2.4640   19.5040 C.3    48  VAL48       0.0023
     27  N          9.4950   -1.2520   18.5500 N.am   49  LYS49      -0.1977
     28  CA         9.1310   -2.6380   18.6690 C.3    49  LYS49       0.1596
     29  C         10.1550   -3.5360   17.9830 C.2    49  LYS49       0.2287
     30  O         10.4710   -3.3640   16.7990 O.2    49  LYS49      -0.2864
     31  CB         7.7520   -2.8790   18.0640 C.3    49  LYS49       0.0298
     32  CG         7.3270   -4.3020   18.0740 C.3    49  LYS49       0.0038
     33  CD         5.8260   -4.4940   17.9330 C.3    49  LYS49       0.0206
     34  CE         5.3290   -4.4730   16.5090 C.3    49  LYS49       0.1093
     35  NZ         3.9270   -5.0990   16.4220 N.3    49  LYS49      -0.1314
     36  N          3.2690   -7.1290    8.4100 N.3    67  GLU67      -0.1245
     37  CA         3.2940   -5.9760    9.2920 C.3    67  GLU67       0.1567
     38  C          4.0770   -4.7890    8.6930 C.2    67  GLU67       0.2260
     39  O          3.6120   -3.6610    8.7390 O.2    67  GLU67      -0.2867
     40  CB         3.8180   -6.3260   10.7160 C.3    67  GLU67       0.0388
     41  CG         3.5210   -5.1410   11.6380 C.3    67  GLU67       0.1160
     42  CD         3.8190   -5.3780   13.1290 C.2    67  GLU67       0.3649
     43  OE1        4.8090   -6.0420   13.4690 O.co2  67  GLU67      -0.2457
     44  OE2        3.0490   -4.8560   13.9520 O.co2  67  GLU67      -0.2457
     45  N          2.2460   -1.3320    7.6900 N.3    71  LEU71      -0.1245
     46  CA         2.6160   -0.1350    8.3970 C.3    71  LEU71       0.1561
     47  C          3.2830    0.9150    7.4750 C.2    71  LEU71       0.2260
     48  O          3.0190    2.0890    7.6340 O.2    71  LEU71      -0.2867
     49  CB         3.4250   -0.4670    9.6230 C.3    71  LEU71       0.0270
     50  CG         2.5700   -1.1910   10.7020 C.3    71  LEU71       0.0019
     51  CD1        3.3520   -1.1810   11.9520 C.3    71  LEU71       0.0001
     52  CD2        1.1950   -0.5400   10.9360 C.3    71  LEU71       0.0001
     53  N         -1.7860    4.0920   13.3730 N.3    80  ILE80      -0.1245
     54  CA        -0.3820    4.0000   13.6870 C.3    80  ILE80       0.1561
     55  C          0.3810    3.6850   12.3750 C.2    80  ILE80       0.2260
     56  O         -0.0170    2.7870   11.6290 O.2    80  ILE80      -0.2867
     57  CB        -0.1600    2.9180   14.7190 C.3    80  ILE80       0.0252
     58  CG1       -0.5060    3.4640   16.1430 C.3    80  ILE80       0.0019
     59  CG2        1.2440    2.4210   14.7150 C.3    80  ILE80       0.0019
     60  CD1        0.4660    4.5370   16.6680 C.3    80  ILE80       0.0001
     61  N          4.6350    4.2870   10.4910 N.3    82  LEU82      -0.1245
     62  CA         6.0180    4.1180   10.7720 C.3    82  LEU82       0.1561
     63  C          6.7750    5.4490   10.7700 C.2    82  LEU82       0.2260
     64  O          6.7500    6.1910    9.7830 O.2    82  LEU82      -0.2867
     65  CB         6.6110    3.2030    9.7080 C.3    82  LEU82       0.0270
     66  CG         6.1650    1.7590    9.8040 C.3    82  LEU82       0.0019
     67  CD1        6.8770    0.9870    8.7230 C.3    82  LEU82       0.0001
     68  CD2        6.5250    1.1070   11.1800 C.3    82  LEU82       0.0001
     69  N         10.7280   -1.5950   14.5070 N.3   100  LEU100     -0.1245
     70  CA         9.7850   -0.6150   13.9350 C.3   100  LEU100      0.1561
     71  C          9.5770    0.5170   14.9570 C.2   100  LEU100      0.2260
     72  O          9.4540    0.2310   16.1250 O.2   100  LEU100     -0.2867
     73  CB         8.4360   -1.2990   13.6980 C.3   100  LEU100      0.0270
     74  CG         8.4370   -2.5940   12.8520 C.3   100  LEU100      0.0019
     75  CD1        7.1050   -3.2610   12.8440 C.3   100  LEU100      0.0001
     76  CD2        8.8930   -2.3510   11.4760 C.3   100  LEU100      0.0001
     77  N          7.3150    4.0150   16.0400 N.3   102  THR102     -0.1203
     78  CA         6.1850    4.9030   15.9050 C.3   102  THR102      0.1994
     79  C          6.0980    5.9570   16.9960 C.2   102  THR102      0.2618
     80  O          6.8440    5.9100   17.9750 O.2   102  THR102     -0.2717
     81  CB         4.8880    4.0870   15.9960 C.3   102  THR102      0.1784
     82  OG1        3.7510    4.8920   15.6240 O.3   102  THR102     -0.2211
     83  CG2        4.5610    3.8150   17.4240 C.3   102  THR102      0.0376
     84  N          5.1160    6.8590   16.8590 N.am  103  HIS103     -0.1961
     85  CA         4.7710    7.7740   17.9420 C.3   103  HIS103      0.1787
     86  C          4.5090    7.0100   19.2100 C.2   103  HIS103      0.2620
     87  O          3.8770    5.9750   19.2040 O.2   103  HIS103     -0.2715
     88  CB         3.5210    8.6070   17.6440 C.3   103  HIS103      0.0785
     89  CG         3.7320    9.6070   16.5690 C.ar  103  HIS103      0.0821
     90  ND1        3.0180    9.5850   15.3850 N.ar  103  HIS103     -0.2267
     91  CD2        4.6560   10.5950   16.4460 C.ar  103  HIS103      0.1154
     92  CE1        3.4590   10.5630   14.6080 C.ar  103  HIS103      0.1986
     93  NE2        4.4530   11.1810   15.2240 N.ar  103  HIS103     -0.2212
     94  N          5.0190    7.5290   20.3260 N.am  104  LEU104     -0.1963
     95  CA         4.6670    6.9910   21.6100 C.3   104  LEU104      0.1728
     96  C          3.3510    7.6890   22.0180 C.2   104  LEU104      0.2616
     97  O          3.2120    8.9550   21.9690 O.2   104  LEU104     -0.2715
     98  CB         5.7880    7.2410   22.6220 C.3   104  LEU104      0.0311
     99  CG         5.5380    6.6580   23.9970 C.3   104  LEU104      0.0022
    100  CD1        5.7190    5.1860   24.0150 C.3   104  LEU104      0.0001
    101  CD2        6.5030    7.3180   25.0240 C.3   104  LEU104      0.0001
    102  N          2.3820    6.8880   22.4130 N.am  105  MET105     -0.1963
    103  CA         1.0910    7.4500   22.7970 C.3   105  MET105      0.1736
    104  C          0.9330    7.4060   24.3020 C.2   105  MET105      0.2617
    105  O          0.2590    8.2370   24.9170 O.2   105  MET105     -0.2715
    106  CB        -0.0340    6.6900   22.0830 C.3   105  MET105      0.0427
    107  CG         0.0850    6.8110   20.5930 C.3   105  MET105      0.0599
    108  SD        -0.1920    8.4400   19.9030 S.3   105  MET105     -0.1393
    109  CE        -1.9110    8.6610   20.2320 C.3   105  MET105      0.0692
    110  N          1.5880    6.4810   24.9370 N.am  106  GLY106     -0.1940
    111  CA         1.4830    6.4320   26.3940 C.3   106  GLY106      0.2014
    112  C          0.3130    5.7900   27.1150 C.2   106  GLY106      0.2639
    113  O          0.4420    5.5920   28.2890 O.2   106  GLY106     -0.2714
    114  N         -0.7910    5.4230   26.4360 N.am  107  ALA107     -0.1963
    115  CA        -1.7490    4.5240   27.0430 C.3   107  ALA107      0.1728
    116  C         -2.6310    3.8860   25.9460 C.2   107  ALA107      0.2616
    117  O         -2.5880    4.2860   24.8130 O.2   107  ALA107     -0.2715
    118  CB        -2.6090    5.2850   28.0180 C.3   107  ALA107      0.0334
    119  N         -3.3720    2.8670   26.3040 N.am  108  ASP108     -0.1971
    120  CA        -4.3740    2.2920   25.4060 C.3   108  ASP108      0.1709
    121  C         -5.7170    2.6500   25.9630 C.2   108  ASP108      0.2293
    122  O         -5.8130    3.0410   27.1380 O.2   108  ASP108     -0.2864
    123  CB        -4.1770    0.7650   25.2140 C.3   108  ASP108      0.1436
    124  CG        -4.3720   -0.0210   26.4770 C.2   108  ASP108      0.3671
    125  OD1       -3.5230   -0.8990   26.7560 O.co2 108  ASP108     -0.2456
    126  OD2       -5.3630    0.1690   27.2290 O.co2 108  ASP108     -0.2456
    127  N         -7.0280    1.3980   29.4980 N.3   111  ASN111     -0.1240
    128  CA        -6.5640    2.1780   30.6350 C.3   111  ASN111      0.1653
    129  C         -7.3710    3.4320   30.9610 C.2   111  ASN111      0.2266
    130  O         -7.3140    3.9310   32.1060 O.2   111  ASN111     -0.2867
    131  CB        -5.1100    2.5960   30.4440 C.3   111  ASN111      0.1155
    132  CG        -4.1820    1.4300   30.3490 C.2   111  ASN111      0.2627
    133  OD1       -4.3400    0.4300   31.0700 O.2   111  ASN111     -0.2716
    134  ND2       -3.1880    1.5400   29.4560 N.am  111  ASN111     -0.0877
    135  N         -7.6370   -2.4830   23.6550 N.3   147  SER147     -0.1217
    136  CA        -6.1920   -2.6410   23.8070 C.3   147  SER147      0.1889
    137  C         -5.4410   -2.4430   22.4740 C.2   147  SER147      0.2288
    138  O         -4.2000   -2.3800   22.4600 O.2   147  SER147     -0.2866
    139  CB        -5.8610   -3.9890   24.4260 C.3   147  SER147      0.2089
    140  OG        -6.4410   -5.0970   23.7410 O.3   147  SER147     -0.2183
    141  N         -4.5210    3.2180   20.7660 N.3   150  ALA150     -0.1245
    142  CA        -3.5230    4.0000   21.4740 C.3   150  ALA150      0.1562
    143  C         -4.0300    5.4390   21.6120 C.2   150  ALA150      0.2260
    144  O         -4.5620    6.0270   20.6730 O.2   150  ALA150     -0.2867
    145  CB        -2.2130    3.9590   20.7780 C.3   150  ALA150      0.0290
    146  N         -4.0260    0.7360   16.4040 N.3   160  LEU160     -0.1231
    147  CA        -2.8400   -0.0890   16.3070 C.3   160  LEU160      0.1693
    148  C         -3.1770   -1.3710   15.5710 C.2   160  LEU160      0.2592
    149  O         -4.2640   -1.8520   15.7060 O.2   160  LEU160     -0.2718
    150  CB        -2.4010   -0.4930   17.7080 C.3   160  LEU160      0.0284
    151  CG        -1.6930    0.4800   18.6280 C.3   160  LEU160      0.0019
    152  CD1       -1.9440    0.1030   20.0850 C.3   160  LEU160      0.0001
    153  CD2       -0.1620    0.4460   18.3380 C.3   160  LEU160      0.0001
    154  N         -2.2220   -1.9670   14.8830 N.am  161  ASP161     -0.1960
    155  CA        -2.4020   -3.3160   14.3710 C.3   161  ASP161      0.1840
    156  C         -2.4970   -4.3950   15.4880 C.2   161  ASP161      0.2622
    157  O         -3.4430   -5.2030   15.4550 O.2   161  ASP161     -0.2715
    158  CB        -1.3580   -3.6370   13.2930 C.3   161  ASP161      0.1450
    159  CG         0.0480   -3.6830   13.8130 C.2   161  ASP161      0.3671
    160  OD1        0.4150   -3.2230   14.9500 O.co2 161  ASP161     -0.2456
    161  OD2        0.9010   -4.1990   13.0820 O.co2 161  ASP161     -0.2456
    162  N         -1.6010   -4.3590   16.4860 N.am  162  PHE162     -0.1960
    163  CA        -1.5540   -5.3090   17.6400 C.3   162  PHE162      0.1771
    164  C         -1.2060   -4.5780   18.8850 C.2   162  PHE162      0.2620
    165  O         -0.2990   -3.7510   18.8850 O.2   162  PHE162     -0.2715
    166  CB        -0.4070   -6.3230   17.5480 C.3   162  PHE162      0.0574
    167  CG        -0.4260   -7.1200   16.3010 C.ar  162  PHE162     -0.0200
    168  CD1        0.4630   -6.8540   15.2910 C.ar  162  PHE162     -0.0042
    169  CD2       -1.3800   -8.1060   16.1230 C.ar  162  PHE162     -0.0042
    170  CE1        0.4240   -7.5810   14.1120 C.ar  162  PHE162     -0.0003
    171  CE2       -1.4340   -8.8450   14.9420 C.ar  162  PHE162     -0.0003
    172  CZ        -0.5420   -8.5770   13.9370 C.ar  162  PHE162     -0.0000
    173  N         -1.8630   -4.9250   19.9720 N.am  163  GLY163     -0.1940
    174  CA        -1.6010   -4.2430   21.2330 C.3   163  GLY163      0.2014
    175  C         -0.6670   -5.0950   22.0670 C.2   163  GLY163      0.2638
    176  O         -0.0050   -5.9970   21.5400 O.2   163  GLY163     -0.2714
    177  N         -0.6190   -4.7980   23.3650 N.am  164  LEU164     -0.1977
    178  CA         0.1940   -5.5520   24.3210 C.3   164  LEU164      0.1596
    179  C         -0.5850   -6.6350   25.0610 C.2   164  LEU164      0.2287
    180  O         -1.6300   -6.3430   25.6460 O.2   164  LEU164     -0.2864
    181  CB         0.7310   -4.6060   25.3880 C.3   164  LEU164      0.0297
    182  CG         1.6040   -3.4320   24.9510 C.3   164  LEU164      0.0022
    183  CD1        1.7870   -2.4910   26.1660 C.3   164  LEU164      0.0001
    184  CD2        2.9300   -3.8800   24.3780 C.3   164  LEU164      0.0001
    185  N          1.7220   -5.6200   29.8870 N.3   167  HIS167     -0.1241
    186  CA         2.3850   -4.3270   30.0890 C.3   167  HIS167      0.1621
    187  C          3.3990   -4.5180   31.2060 C.2   167  HIS167      0.2264
    188  O          3.3150   -5.4890   31.9590 O.2   167  HIS167     -0.2867
    189  CB         1.4010   -3.2040   30.4570 C.3   167  HIS167      0.0745
    190  CG         0.0640   -3.3170   29.7910 C.ar  167  HIS167      0.0817
    191  ND1       -0.0800   -3.4500   28.4250 N.ar  167  HIS167     -0.2268
    192  CD2       -1.1900   -3.3240   30.3040 C.ar  167  HIS167      0.1154
    193  CE1       -1.3650   -3.5310   28.1250 C.ar  167  HIS167      0.1986
    194  NE2       -2.0600   -3.4590   29.2470 N.ar  167  HIS167     -0.2212
@<TRIPOS>BOND
     1    47    48    2
     2    47    46    1
     3    45    46    1
     4    46    49    1
     5    36    37    1
     6    38    39    2
     7    38    37    1
     8    67    66    1
     9    37    40    1
    10    49    50    1
    11    65    66    1
    12    65    62    1
    13    64    63    2
    14    66    68    1
    15    61    62    1
    16    50    52    1
    17    50    51    1
    18    40    41    1
    19    63    62    1
    20    76    74    1
    21    56    55    2
    22    41    42    1
    23    55    54    1
    24    75    74    1
    25    74    73    1
    26   161   159   ar
    27    42    43   ar
    28    42    44   ar
    29   158   159    1
    30   158   155    1
    31    53    54    1
    32    54    57    1
    33    73    70    1
    34   159   160   ar
    35    70    69    1
    36    70    71    1
    37   172   170   ar
    38   172   171   ar
    39   170   168   ar
    40   155   154    1
    41   155   156    1
    42    92    93   ar
    43    92    90   ar
    44    59    57    1
    45    57    58    1
    46   154   148   am
    47   171   169   ar
    48    71    72    2
    49    93    91   ar
    50   168   167   ar
    51    90    89   ar
    52   157   156    2
    53   156   162   am
    54   148   149    2
    55   148   147    1
    56    82    81    1
    57    78    81    1
    58    78    77    1
    59    78    79    1
    60    81    83    1
    61   169   167   ar
    62    58    60    1
    63   167   166    1
    64   147   146    1
    65   147   150    1
    66    35    34    1
    67    91    89   ar
    68   162   163    1
    69    34    33    1
    70    89    88    1
    71    30    29    2
    72    84    79   am
    73    84    85    1
    74    79    80    2
    75   166   163    1
    76   163   164    1
    77    88    85    1
    78   150   151    1
    79    33    32    1
    80    85    86    1
    81    29    28    1
    82    31    32    1
    83    31    28    1
    84   153   151    1
    85    25    24    1
    86    27    28    1
    87    27    22   am
    88    18    17    2
    89   151   152    1
    90   165   164    2
    91   164   173   am
    92    87    86    2
    93    86    94   am
    94    21    24    1
    95    21    22    1
    96    21    20    1
    97    26    24    1
    98    22    23    2
    99    17    20   am
   100    17    16    1
   101   108   109    1
   102   108   107    1
   103   173   174    1
   104    15    16    1
   105    94    95    1
   106   107   106    1
   107   144   143    2
   108    16    19    1
   109   141   142    1
   110   145   142    1
   111   174   175    1
   112   142   143    1
   113   176   175    2
   114    14    12    1
   115    95    96    1
   116    95    98    1
   117    97    96    2
   118    96   102   am
   119   175   177   am
   120   106   103    1
   121   102   103    1
   122   138   137    2
   123   137   136    1
   124    13    12    1
   125    98    99    1
   126    12     9    1
   127   103   104    1
   128     9     8    1
   129     9    10    1
   130   177   178    1
   131   135   136    1
   132   140   139    1
   133   136   139    1
   134    99   100    1
   135    99   101    1
   136    10    11    2
   137   104   105    2
   138   104   110   am
   139   178   179    1
   140   178   181    1
   141   184   182    1
   142   117   116    2
   143   110   111    1
   144   182   181    1
   145   182   183    1
   146   179   180    2
   147   123   120    1
   148   123   124    1
   149   120   121    1
   150   120   119    1
   151   116   119   am
   152   116   115    1
   153   121   122    2
   154   111   112    1
   155   114   115    1
   156   114   112   am
   157   124   125   ar
   158   124   126   ar
   159     6     5    1
   160     5     7    1
   161     5     2    1
   162   115   118    1
   163   112   113    2
   164     1     2    1
   165     2     3    1
   166     3     4    2
   167   193   191   ar
   168   193   194   ar
   169   191   190   ar
   170   194   192   ar
   171   134   132   am
   172   127   128    1
   173   190   192   ar
   174   190   189    1
   175   185   186    1
   176   186   189    1
   177   186   187    1
   178   132   131    1
   179   132   133    2
   180   131   128    1
   181   128   129    1
   182   129   130    2
   183   187   188    2
