@<TRIPOS>MOLECULE
tmp/2gtnA00.pdb
 169 158 0 0 0
SMALL
GASTEIGER

@<TRIPOS>ATOM
      1  N         -7.8020    1.3050   27.7610 N.3    26  VAL26      -0.1245
      2  CA        -6.3930    1.0080   27.9630 C.3    26  VAL26       0.1561
      3  C         -5.7040    2.3420   28.2230 C.2    26  VAL26       0.2260
      4  O         -4.9160    2.4620   29.1730 O.2    26  VAL26      -0.2867
      5  CB        -5.7790    0.2490   26.7480 C.3    26  VAL26       0.0252
      6  CG1       -4.2760    0.1620   26.8450 C.3    26  VAL26       0.0019
      7  CG2       -6.3760   -1.1420   26.6640 C.3    26  VAL26       0.0019
      8  N         -8.0650    4.2100   23.1230 N.3    34  VAL34      -0.1245
      9  CA        -8.0600    2.7840   22.8120 C.3    34  VAL34       0.1561
     10  C         -8.6980    2.0160   23.9770 C.2    34  VAL34       0.2260
     11  O         -8.4320    2.3100   25.1380 O.2    34  VAL34      -0.2867
     12  CB        -6.6410    2.2590   22.6050 C.3    34  VAL34       0.0252
     13  CG1       -6.6640    0.7710   22.3350 C.3    34  VAL34       0.0019
     14  CG2       -5.9540    2.9920   21.4520 C.3    34  VAL34       0.0019
     15  N         -7.8250   -4.6920   20.3430 N.3    47  ALA47      -0.1245
     16  CA        -7.7150   -3.2900   20.6960 C.3    47  ALA47       0.1562
     17  C         -8.5550   -2.5310   19.6930 C.2    47  ALA47       0.2260
     18  O         -8.4250   -2.7870   18.5220 O.2    47  ALA47      -0.2867
     19  CB        -6.2710   -2.8180   20.6010 C.3    47  ALA47       0.0290
     20  N         -9.4550    1.3160   18.5170 N.3    49  LYS49      -0.1245
     21  CA        -9.0660    2.6930   18.6650 C.3    49  LYS49       0.1561
     22  C        -10.0900    3.6150   18.0350 C.2    49  LYS49       0.2260
     23  O        -10.4170    3.4410   16.8660 O.2    49  LYS49      -0.2867
     24  CB        -7.7120    2.8900   18.0000 C.3    49  LYS49       0.0271
     25  CG        -7.1580    4.2760   18.0180 C.3    49  LYS49       0.0035
     26  CD        -6.0250    4.3640   16.9770 C.3    49  LYS49       0.0206
     27  CE        -4.9040    5.2020   17.4310 C.3    49  LYS49       0.1093
     28  NZ        -3.6290    4.9640   16.6640 N.3    49  LYS49      -0.1314
     29  N         -3.2080    7.2190    8.4960 N.3    67  GLU67      -0.1245
     30  CA        -3.2750    6.0520    9.4150 C.3    67  GLU67       0.1567
     31  C         -4.0530    4.8600    8.7950 C.2    67  GLU67       0.2260
     32  O         -3.5820    3.7010    8.8300 O.2    67  GLU67      -0.2867
     33  CB        -3.8720    6.4040   10.7970 C.3    67  GLU67       0.0388
     34  CG        -3.6790    5.2150   11.7480 C.3    67  GLU67       0.1160
     35  CD        -3.9200    5.4990   13.2330 C.2    67  GLU67       0.3649
     36  OE1       -4.6770    6.4260   13.5660 O.co2  67  GLU67      -0.2457
     37  OE2       -3.3610    4.7770   14.0910 O.co2  67  GLU67      -0.2457
     38  N         -2.3040    1.2970    7.9050 N.3    71  LEU71      -0.1245
     39  CA        -2.8020    0.0960    8.6230 C.3    71  LEU71       0.1561
     40  C         -3.4190   -0.9250    7.6500 C.2    71  LEU71       0.2260
     41  O         -3.3210   -2.1130    7.8600 O.2    71  LEU71      -0.2867
     42  CB        -3.8120    0.5130    9.6690 C.3    71  LEU71       0.0270
     43  CG        -3.2400    1.0770   11.0180 C.3    71  LEU71       0.0019
     44  CD1       -4.3400    1.6010   11.8090 C.3    71  LEU71       0.0001
     45  CD2       -2.5610   -0.0040   11.8270 C.3    71  LEU71       0.0001
     46  N          1.7310   -4.0530   13.4900 N.3    80  ILE80      -0.1245
     47  CA         0.3200   -3.9870   13.7910 C.3    80  ILE80       0.1561
     48  C         -0.4350   -3.7270   12.5130 C.2    80  ILE80       0.2260
     49  O         -0.0600   -2.8690   11.7240 O.2    80  ILE80      -0.2867
     50  CB         0.0160   -2.8960   14.8070 C.3    80  ILE80       0.0252
     51  CG1        0.6280   -3.2680   16.1630 C.3    80  ILE80       0.0019
     52  CG2       -1.4960   -2.6450   14.9490 C.3    80  ILE80       0.0019
     53  CD1       -0.2570   -4.0680   17.0120 C.3    80  ILE80       0.0001
     54  N        -10.7050    1.7370   14.5210 N.3   100  LEU100     -0.1245
     55  CA        -9.7680    0.7650   13.9610 C.3   100  LEU100      0.1561
     56  C         -9.5450   -0.3810   14.9600 C.2   100  LEU100      0.2260
     57  O         -9.4640   -0.1340   16.1330 O.2   100  LEU100     -0.2867
     58  CB        -8.4570    1.4560   13.7330 C.3   100  LEU100      0.0270
     59  CG        -8.4740    2.7320   12.9150 C.3   100  LEU100      0.0019
     60  CD1       -7.1190    3.4190   12.9940 C.3   100  LEU100      0.0001
     61  CD2       -8.8560    2.4630   11.4880 C.3   100  LEU100      0.0001
     62  N         -7.3440   -3.9470   15.9920 N.3   102  THR102     -0.1203
     63  CA        -6.1710   -4.8180   15.8480 C.3   102  THR102      0.1994
     64  C         -6.1070   -5.8610   16.9350 C.2   102  THR102      0.2618
     65  O         -6.8220   -5.7670   17.9450 O.2   102  THR102     -0.2717
     66  CB        -4.8450   -3.9970   15.9020 C.3   102  THR102      0.1784
     67  OG1       -4.6980   -3.3460   17.1930 O.3   102  THR102     -0.2211
     68  CG2       -4.9030   -2.8810   14.9550 C.3   102  THR102      0.0376
     69  N         -5.2080   -6.8400   16.7960 N.am  103  HIS103     -0.1961
     70  CA        -4.9960   -7.7870   17.9120 C.3   103  HIS103      0.1787
     71  C         -4.4520   -7.1180   19.1510 C.2   103  HIS103      0.2620
     72  O         -3.5730   -6.2960   19.0480 O.2   103  HIS103     -0.2715
     73  CB        -4.0520   -8.9090   17.5330 C.3   103  HIS103      0.0785
     74  CG        -4.6720   -9.9350   16.6370 C.ar  103  HIS103      0.0821
     75  ND1       -4.1520  -10.2400   15.3960 N.ar  103  HIS103     -0.2267
     76  CD2       -5.7580  -10.7330   16.7940 C.ar  103  HIS103      0.1154
     77  CE1       -4.8980  -11.1620   14.8150 C.ar  103  HIS103      0.1986
     78  NE2       -5.8880  -11.4750   15.6390 N.ar  103  HIS103     -0.2212
     79  N         -4.9720   -7.4580   20.3400 N.am  104  LEU104     -0.1963
     80  CA        -4.4900   -6.8880   21.5790 C.3   104  LEU104      0.1728
     81  C         -3.2270   -7.6570   22.0480 C.2   104  LEU104      0.2616
     82  O         -3.2790   -8.8840   22.2090 O.2   104  LEU104     -0.2715
     83  CB        -5.5930   -6.9100   22.6610 C.3   104  LEU104      0.0311
     84  CG        -5.1820   -6.2720   24.0110 C.3   104  LEU104      0.0022
     85  CD1       -5.1380   -4.7930   23.8960 C.3   104  LEU104      0.0001
     86  CD2       -6.1110   -6.6400   25.1480 C.3   104  LEU104      0.0001
     87  N         -2.1270   -6.9620   22.2980 N.am  105  MET105     -0.1963
     88  CA        -0.9070   -7.6320   22.7090 C.3   105  MET105      0.1736
     89  C         -0.8480   -7.7140   24.2270 C.2   105  MET105      0.2617
     90  O         -0.5090   -8.7470   24.7490 O.2   105  MET105     -0.2715
     91  CB         0.3390   -6.9670   22.1060 C.3   105  MET105      0.0427
     92  CG         0.3050   -6.9780   20.5640 C.3   105  MET105      0.0599
     93  SD         0.4020   -8.6000   19.8540 S.3   105  MET105     -0.1393
     94  CE         2.0790   -9.0690   20.1480 C.3   105  MET105      0.0692
     95  N         -1.1860   -6.6430   24.9070 N.am  106  GLY106     -0.1940
     96  CA        -1.3030   -6.6150   26.3610 C.3   106  GLY106      0.2014
     97  C         -0.3670   -5.6640   27.0620 C.2   106  GLY106      0.2639
     98  O         -0.6680   -5.1500   28.1580 O.2   106  GLY106     -0.2714
     99  N          0.7560   -5.3390   26.4080 N.am  107  ALA107     -0.1963
    100  CA         1.7180   -4.4710   27.0430 C.3   107  ALA107      0.1728
    101  C          2.6390   -3.9020   26.0080 C.2   107  ALA107      0.2616
    102  O          2.5910   -4.3040   24.8850 O.2   107  ALA107     -0.2715
    103  CB         2.5480   -5.2690   28.0500 C.3   107  ALA107      0.0334
    104  N          3.4800   -2.9840   26.4100 N.am  108  ASP108     -0.1971
    105  CA         4.5340   -2.5050   25.5050 C.3   108  ASP108      0.1709
    106  C          5.8660   -2.7980   26.0850 C.2   108  ASP108      0.2293
    107  O          5.9900   -3.3010   27.2160 O.2   108  ASP108     -0.2864
    108  CB         4.3780   -1.0240   25.1520 C.3   108  ASP108      0.1436
    109  CG         4.3520   -0.1210   26.3350 C.2   108  ASP108      0.3671
    110  OD1        5.1600   -0.2660   27.2740 O.co2 108  ASP108     -0.2456
    111  OD2        3.5550    0.8180   26.3560 O.co2 108  ASP108     -0.2456
    112  N          6.7880   -0.9700   29.4660 N.3   111  ASN111     -0.1240
    113  CA         6.1750   -1.6670   30.6110 C.3   111  ASN111      0.1653
    114  C          6.5520   -3.1620   30.6370 C.2   111  ASN111      0.2266
    115  O          5.7440   -4.0320   31.0030 O.2   111  ASN111     -0.2867
    116  CB         4.6410   -1.3770   30.7370 C.3   111  ASN111      0.1155
    117  CG         3.7490   -2.1800   29.7400 C.2   111  ASN111      0.2627
    118  OD1        2.6750   -1.7090   29.3130 O.2   111  ASN111     -0.2716
    119  ND2        4.1680   -3.3920   29.4130 N.am  111  ASN111     -0.0877
    120  N          7.5860    2.4440   23.7740 N.3   150  SER150     -0.1217
    121  CA         6.1380    2.5100   23.8700 C.3   150  SER150      0.1889
    122  C          5.4450    2.2420   22.5250 C.2   150  SER150      0.2288
    123  O          4.2320    2.0270   22.4810 O.2   150  SER150     -0.2866
    124  CB         5.7090    3.8690   24.3840 C.3   150  SER150      0.2089
    125  OG         6.1590    4.9290   23.5520 O.3   150  SER150     -0.2183
    126  N          4.5950   -3.2640   20.9020 N.3   153  ALA153     -0.1245
    127  CA         3.5300   -3.9710   21.6330 C.3   153  ALA153      0.1562
    128  C          3.9810   -5.4270   21.7610 C.2   153  ALA153      0.2260
    129  O          4.4070   -6.0510   20.7850 O.2   153  ALA153     -0.2867
    130  CB         2.2210   -3.8300   20.9270 C.3   153  ALA153      0.0290
    131  N          3.9850   -0.6640   16.4960 N.3   163  LEU163     -0.1231
    132  CA         2.8200    0.2240   16.4490 C.3   163  LEU163      0.1693
    133  C          3.1820    1.5370   15.7660 C.2   163  LEU163      0.2592
    134  O          4.2990    2.0610   15.9410 O.2   163  LEU163     -0.2718
    135  CB         2.3740    0.5990   17.8910 C.3   163  LEU163      0.0284
    136  CG         1.7290   -0.4510   18.7990 C.3   163  LEU163      0.0019
    137  CD1        1.9810   -0.0030   20.2160 C.3   163  LEU163      0.0001
    138  CD2        0.2210   -0.5920   18.6000 C.3   163  LEU163      0.0001
    139  N          2.2040    2.1390   15.0790 N.am  164  ASP164     -0.1960
    140  CA         2.3450    3.4980   14.5390 C.3   164  ASP164      0.1840
    141  C          2.4480    4.5240   15.6730 C.2   164  ASP164      0.2622
    142  O          3.4050    5.3430   15.7050 O.2   164  ASP164     -0.2715
    143  CB         1.2130    3.8140   13.5270 C.3   164  ASP164      0.1450
    144  CG        -0.1940    3.6120   14.0890 C.2   164  ASP164      0.3671
    145  OD1       -1.1180    3.9000   13.3080 O.co2 164  ASP164     -0.2456
    146  OD2       -0.5240    3.1680   15.2340 O.co2 164  ASP164     -0.2456
    147  N          1.5180    4.4590   16.6310 N.am  165  PHE165     -0.1960
    148  CA         1.5550    5.2770   17.8390 C.3   165  PHE165      0.1771
    149  C          1.2970    4.4050   19.0590 C.2   165  PHE165      0.2620
    150  O          0.4460    3.5160   19.0120 O.2   165  PHE165     -0.2715
    151  CB         0.4740    6.3570   17.7960 C.3   165  PHE165      0.0574
    152  CG         0.4600    7.1380   16.5070 C.ar  165  PHE165     -0.0200
    153  CD1       -0.3920    6.7780   15.4640 C.ar  165  PHE165     -0.0042
    154  CD2        1.3540    8.1710   16.3110 C.ar  165  PHE165     -0.0042
    155  CE1       -0.3780    7.4680   14.2590 C.ar  165  PHE165     -0.0003
    156  CE2        1.3720    8.8680   15.1000 C.ar  165  PHE165     -0.0003
    157  CZ         0.5070    8.5100   14.0770 C.ar  165  PHE165     -0.0000
    158  N          2.0160    4.6740   20.1500 N.am  166  GLY166     -0.1940
    159  CA         1.7830    3.9970   21.4100 C.3   166  GLY166      0.2014
    160  C          1.0090    4.8850   22.3640 C.2   166  GLY166      0.2638
    161  O          0.4460    5.8830   21.9350 O.2   166  GLY166     -0.2714
    162  N          0.9840    4.5160   23.6460 N.am  167  LEU167     -0.1977
    163  CA         0.3850    5.3330   24.7280 C.3   167  LEU167      0.1596
    164  C          1.2980    6.4100   25.2790 C.2   167  LEU167      0.2287
    165  O          0.9030    7.5970   25.3600 O.2   167  LEU167     -0.2864
    166  CB         0.0670    4.4440   25.9300 C.3   167  LEU167      0.0297
    167  CG        -0.9980    3.3890   25.7280 C.3   167  LEU167      0.0022
    168  CD1       -1.0780    2.5480   27.0100 C.3   167  LEU167      0.0001
    169  CD2       -2.3560    4.0240   25.3580 C.3   167  LEU167      0.0001
@<TRIPOS>BOND
     1    40    41    2
     2    40    39    1
     3    38    39    1
     4    29    30    1
     5    39    42    1
     6    31    32    2
     7    31    30    1
     8    30    33    1
     9    42    43    1
    10    33    34    1
    11    43    44    1
    12    43    45    1
    13    61    59    1
    14    49    48    2
    15    34    35    1
    16    48    47    1
    17    59    60    1
    18    59    58    1
    19    35    36   ar
    20    35    37   ar
    21   145   144   ar
    22    46    47    1
    23   143   144    1
    24   143   140    1
    25    58    55    1
    26    47    50    1
    27    55    54    1
    28    55    56    1
    29   157   155   ar
    30   157   156   ar
    31   144   146   ar
    32   155   153   ar
    33   140   139    1
    34   140   141    1
    35    50    52    1
    36    50    51    1
    37    77    75   ar
    38    77    78   ar
    39    68    66    1
    40    56    57    2
    41   139   133   am
    42   156   154   ar
    43    75    74   ar
    44   153   152   ar
    45    78    76   ar
    46   141   142    2
    47   141   147   am
    48   133   134    2
    49   133   132    1
    50    63    66    1
    51    63    62    1
    52    63    64    1
    53    66    67    1
    54    51    53    1
    55   154   152   ar
    56   132   131    1
    57   132   135    1
    58   152   151    1
    59   147   148    1
    60    74    76   ar
    61    74    73    1
    62    28    27    1
    63    69    64   am
    64    69    70    1
    65    23    22    2
    66    64    65    2
    67    26    27    1
    68    26    25    1
    69    73    70    1
    70   151   148    1
    71   148   149    1
    72   135   136    1
    73    70    71    1
    74    24    25    1
    75    24    21    1
    76    22    21    1
    77    20    21    1
    78    18    17    2
    79   138   136    1
    80   136   137    1
    81   150   149    2
    82    72    71    2
    83   149   158   am
    84    71    79   am
    85    17    16    1
    86    93    94    1
    87    93    92    1
    88   158   159    1
    89    79    80    1
    90    15    16    1
    91    92    91    1
    92    19    16    1
    93   129   128    2
    94   126   127    1
    95   130   127    1
    96   159   160    1
    97    14    12    1
    98    80    81    1
    99    80    83    1
   100   127   128    1
   101   161   160    2
   102    81    82    2
   103    81    87   am
   104    91    88    1
   105    87    88    1
   106    13    12    1
   107   160   162   am
   108   123   122    2
   109   122   121    1
   110    12     9    1
   111    83    84    1
   112    88    89    1
   113     9     8    1
   114     9    10    1
   115   125   124    1
   116   162   163    1
   117   120   121    1
   118   121   124    1
   119    85    84    1
   120    10    11    2
   121    84    86    1
   122    89    90    2
   123    89    95   am
   124   163   164    1
   125   163   166    1
   126   102   101    2
   127    95    96    1
   128   108   105    1
   129   108   109    1
   130   164   165    2
   131   169   167    1
   132   105   106    1
   133   105   104    1
   134   167   166    1
   135   167   168    1
   136   101   104   am
   137   101   100    1
   138   106   107    2
   139   109   111   ar
   140   109   110   ar
   141    96    97    1
   142    99   100    1
   143    99    97   am
   144     7     5    1
   145     5     6    1
   146     5     2    1
   147   100   103    1
   148    97    98    2
   149     1     2    1
   150     2     3    1
   151     3     4    2
   152   118   117    2
   153   119   117   am
   154   112   113    1
   155   117   116    1
   156   113   114    1
   157   113   116    1
   158   114   115    2
