@<TRIPOS>MOLECULE
tmp/2gtvA00.pdb
 145 132 0 0 0
SMALL
GASTEIGER

@<TRIPOS>ATOM
      1  N        -10.6490   -9.0440   -1.5230 N.3     5  LEU5       -0.1245
      2  CA        -9.8880   -7.9570   -0.8330 C.3     5  LEU5        0.1561
      3  C         -8.5050   -8.4730   -0.4290 C.2     5  LEU5        0.2260
      4  O         -7.5350   -7.7410   -0.4090 O.2     5  LEU5       -0.2867
      5  CB       -10.6710   -7.5440    0.4190 C.3     5  LEU5        0.0270
      6  CG       -10.2510   -6.1470    0.8890 C.3     5  LEU5        0.0019
      7  CD1      -11.4660   -5.4360    1.4890 C.3     5  LEU5        0.0001
      8  CD2       -9.1690   -6.2730    1.9650 C.3     5  LEU5        0.0001
      9  N         -4.5100   -6.8440   -1.3620 N.3     9  ARG9       -0.1245
     10  CA        -3.3820   -6.4520   -0.4710 C.3     9  ARG9        0.1563
     11  C         -2.1210   -7.2350   -0.8760 C.2     9  ARG9        0.2260
     12  O         -1.0070   -6.8180   -0.6150 O.2     9  ARG9       -0.2867
     13  CB        -3.7620   -6.7530    0.9850 C.3     9  ARG9        0.0307
     14  CG        -4.1150   -5.4390    1.7020 C.3     9  ARG9        0.0489
     15  CD        -5.3230   -4.7940    1.0230 C.3     9  ARG9        0.2205
     16  NE        -6.0570   -3.9200    1.9970 N.pl3   9  ARG9       -0.0865
     17  CZ        -6.5650   -4.4450    3.0840 C.cat   9  ARG9        0.5346
     18  NH1       -6.5540   -5.7420    3.2440 N.pl3   9  ARG9        0.1354
     19  NH2       -7.1530   -3.6860    3.9720 N.pl3   9  ARG9        0.1354
     20  N         -0.3020   -5.2040   -3.4420 N.3    12  ILE12      -0.1245
     21  CA         0.3870   -4.0510   -2.7950 C.3    12  ILE12       0.1561
     22  C          1.7230   -4.5380   -2.2360 C.2    12  ILE12       0.2260
     23  O          2.7110   -3.8300   -2.2380 O.2    12  ILE12      -0.2867
     24  CB        -0.4810   -3.5120   -1.6500 C.3    12  ILE12       0.0252
     25  CG1       -1.9050   -3.2420   -2.1500 C.3    12  ILE12       0.0019
     26  CG2        0.1190   -2.2080   -1.1220 C.3    12  ILE12       0.0019
     27  CD1       -1.8580   -2.4020   -3.4260 C.3    12  ILE12       0.0001
     28  N         -1.1060    2.3060   -6.2730 N.3    34  ARG34      -0.1245
     29  CA        -1.7280    2.4020   -4.9190 C.3    34  ARG34       0.1563
     30  C         -3.1250    2.9950   -5.0490 C.2    34  ARG34       0.2260
     31  O         -4.0730    2.5190   -4.4590 O.2    34  ARG34      -0.2867
     32  CB        -0.8660    3.3060   -4.0210 C.3    34  ARG34       0.0307
     33  CG        -1.5100    3.4770   -2.6340 C.3    34  ARG34       0.0489
     34  CD        -1.4890    2.1480   -1.9080 C.3    34  ARG34       0.2205
     35  NE        -2.8520    1.4970   -1.8990 N.pl3  34  ARG34      -0.0865
     36  CZ        -2.9600    0.3250   -1.3640 C.cat  34  ARG34       0.5346
     37  NH1       -1.8970   -0.2460   -0.8720 N.pl3  34  ARG34       0.1354
     38  NH2       -4.1180   -0.2750   -1.2990 N.pl3  34  ARG34       0.1354
     39  N         -6.9780    1.2180   -4.4080 N.3    38  ALA38      -0.1245
     40  CA        -7.6520    2.1300   -3.4320 C.3    38  ALA38       0.1562
     41  C         -9.1530    2.2220   -3.7230 C.2    38  ALA38       0.2260
     42  O         -9.9770    1.9940   -2.8600 O.2    38  ALA38      -0.2867
     43  CB        -7.0390    3.5260   -3.5380 C.3    38  ALA38       0.0290
     44  N        -10.9380   -1.3250   -3.7520 N.3    41  VAL41      -0.1245
     45  CA       -11.1640   -1.8280   -2.3690 C.3    41  VAL41       0.1561
     46  C        -12.3540   -1.0890   -1.7620 C.2    41  VAL41       0.2260
     47  O        -13.2180   -1.6790   -1.1420 O.2    41  VAL41      -0.2867
     48  CB        -9.9140   -1.5700   -1.5230 C.3    41  VAL41       0.0252
     49  CG1      -10.1640   -2.0280   -0.0850 C.3    41  VAL41       0.0019
     50  CG2       -8.7280   -2.3490   -2.1050 C.3    41  VAL41       0.0019
     51  N        -15.4330   -2.5970    0.3220 N.3    45  LYS45      -0.1245
     52  CA       -15.6550   -2.1090    1.7170 C.3    45  LYS45       0.1561
     53  C        -17.1470   -1.8190    1.9160 C.2    45  LYS45       0.2260
     54  O        -17.7420   -2.2050    2.9020 O.2    45  LYS45      -0.2867
     55  CB       -14.8500   -0.8220    1.9510 C.3    45  LYS45       0.0271
     56  CG       -13.3490   -1.1340    1.9350 C.3    45  LYS45       0.0035
     57  CD       -12.9190   -1.6580    3.3110 C.3    45  LYS45       0.0206
     58  CE       -11.3980   -1.5300    3.4660 C.3    45  LYS45       0.1093
     59  NZ       -11.0150   -0.0880    3.4960 N.3    45  LYS45      -0.1314
     60  N        -14.7250    3.1030    5.6710 N.3    52  ILE52      -0.1231
     61  CA       -13.6400    3.0910    4.6490 C.3    52  ILE52       0.1692
     62  C        -12.2860    3.1620    5.3530 C.2    52  ILE52       0.2592
     63  O        -11.3560    2.4630    5.0020 O.2    52  ILE52      -0.2718
     64  CB       -13.8000    4.3060    3.7310 C.3    52  ILE52       0.0266
     65  CG1      -15.2040    4.2950    3.1210 C.3    52  ILE52       0.0019
     66  CG2      -12.7530    4.2540    2.6160 C.3    52  ILE52       0.0020
     67  CD1      -15.4710    5.6250    2.4120 C.3    52  ILE52       0.0001
     68  N        -12.1650    4.0020    6.3410 N.am   53  ASN53      -0.1960
     69  CA       -10.8710    4.1160    7.0630 C.3    53  ASN53       0.1819
     70  C        -10.5990    2.8300    7.8420 C.2    53  ASN53       0.2621
     71  O        -11.5050    2.1110    8.2170 O.2    53  ASN53      -0.2715
     72  CB       -10.9140    5.2920    8.0350 C.3    53  ASN53       0.1195
     73  CG        -9.4760    5.6850    8.3810 C.2    53  ASN53       0.2630
     74  OD1       -9.0400    6.7800    8.0750 O.2    53  ASN53      -0.2716
     75  ND2       -8.7050    4.8230    8.9890 N.am   53  ASN53      -0.0877
     76  N         -9.3520    2.5290    8.0810 N.am   54  ASP54      -0.1971
     77  CA        -9.0230    1.2820    8.8140 C.3    54  ASP54       0.1709
     78  C         -7.5490    1.3030    9.2310 C.2    54  ASP54       0.2293
     79  O         -6.7010    0.7160    8.5820 O.2    54  ASP54      -0.2864
     80  CB        -9.2800    0.0830    7.9060 C.3    54  ASP54       0.1436
     81  CG       -10.7430   -0.3440    8.0190 C.2    54  ASP54       0.3671
     82  OD1      -11.1400   -0.7340    9.1050 O.co2  54  ASP54      -0.2456
     83  OD2      -11.4400   -0.2790    7.0220 O.co2  54  ASP54      -0.2456
     84  N         -5.1860   -1.9570    9.7290 N.3    57  ARG57      -0.1231
     85  CA        -4.4760   -2.3250    8.4680 C.3    57  ARG57       0.1694
     86  C         -3.2200   -1.4660    8.3380 C.2    57  ARG57       0.2591
     87  O         -2.1370   -1.9620    8.1000 O.2    57  ARG57      -0.2718
     88  CB        -5.4070   -2.0670    7.2780 C.3    57  ARG57       0.0321
     89  CG        -6.0320   -3.3770    6.7830 C.3    57  ARG57       0.0489
     90  CD        -5.1080   -4.0550    5.7820 C.3    57  ARG57       0.2205
     91  NE        -4.8860   -3.1500    4.6090 N.pl3  57  ARG57      -0.0865
     92  CZ        -3.8630   -3.3540    3.8130 C.cat  57  ARG57       0.5346
     93  NH1       -2.9660   -4.2550    4.1160 N.pl3  57  ARG57       0.1354
     94  NH2       -3.7210   -2.6430    2.7260 N.pl3  57  ARG57       0.1354
     95  N         -3.3580   -0.1780    8.5080 N.am   58  GLU58      -0.1979
     96  CA        -2.1760    0.7230    8.4030 C.3    58  GLU58       0.1602
     97  C         -1.1420    0.3060    9.4570 C.2    58  GLU58       0.2287
     98  O          0.0460    0.2780    9.1980 O.2    58  GLU58      -0.2864
     99  CB        -2.6150    2.1700    8.6490 C.3    58  GLU58       0.0415
    100  CG        -3.3980    2.6820    7.4350 C.3    58  GLU58       0.1163
    101  CD        -4.8070    2.0840    7.4450 C.2    58  GLU58       0.3649
    102  OE1       -4.9540    0.9530    7.0090 O.co2  58  GLU58      -0.2457
    103  OE2       -5.7140    2.7660    7.8880 O.co2  58  GLU58      -0.2457
    104  N          0.7290   -2.7250    8.3110 N.3    61  ILE61      -0.1245
    105  CA         1.7560   -2.3760    7.2820 C.3    61  ILE61       0.1561
    106  C          2.9980   -1.8100    7.9830 C.2    61  ILE61       0.2260
    107  O          4.1190   -2.1260    7.6340 O.2    61  ILE61      -0.2867
    108  CB         1.1900   -1.3130    6.3380 C.3    61  ILE61       0.0252
    109  CG1        0.2520   -1.9650    5.3110 C.3    61  ILE61       0.0019
    110  CG2        2.3400   -0.6110    5.6170 C.3    61  ILE61       0.0019
    111  CD1        1.0650   -2.5350    4.1450 C.3    61  ILE61       0.0001
    112  N         -0.5330    5.9860    1.6730 N.3    87  ILE87      -0.1245
    113  CA        -1.8500    5.6890    2.3120 C.3    87  ILE87       0.1561
    114  C         -2.7280    6.9470    2.2870 C.2    87  ILE87       0.2260
    115  O         -3.9060    6.8890    2.0010 O.2    87  ILE87      -0.2867
    116  CB        -1.6260    5.2490    3.7600 C.3    87  ILE87       0.0252
    117  CG1       -0.6420    4.0720    3.7940 C.3    87  ILE87       0.0019
    118  CG2       -2.9560    4.8210    4.3810 C.3    87  ILE87       0.0019
    119  CD1       -1.1710    2.9240    2.9280 C.3    87  ILE87       0.0001
    120  N         -4.3300    7.3010   -0.7050 N.3    90  ASN90      -0.1225
    121  CA        -5.1810    6.0850   -0.8490 C.3    90  ASN90       0.1785
    122  C         -6.5230    6.3370   -0.1520 C.2    90  ASN90       0.2597
    123  O         -7.5770    6.0570   -0.6870 O.2    90  ASN90      -0.2718
    124  CB        -4.4680    4.8990   -0.1910 C.3    90  ASN90       0.1169
    125  CG        -5.1290    3.5860   -0.6200 C.2    90  ASN90       0.2627
    126  OD1       -5.8500    2.9770    0.1440 O.2    90  ASN90      -0.2716
    127  ND2       -4.9040    3.1170   -1.8180 N.am   90  ASN90      -0.0877
    128  N         -6.4860    6.8740    1.0410 N.am   91  LYS91      -0.1980
    129  CA        -7.7510    7.1710    1.7780 C.3    91  LYS91       0.1596
    130  C         -8.4660    8.3360    1.0910 C.2    91  LYS91       0.2287
    131  O         -9.6300    8.2570    0.7520 O.2    91  LYS91      -0.2864
    132  CB        -7.4130    7.5580    3.2270 C.3    91  LYS91       0.0298
    133  CG        -8.6970    7.9070    3.9910 C.3    91  LYS91       0.0038
    134  CD        -8.3530    8.2860    5.4380 C.3    91  LYS91       0.0206
    135  CE        -9.6360    8.6120    6.2080 C.3    91  LYS91       0.1093
    136  NZ       -10.3830    9.6940    5.5000 N.3    91  LYS91      -0.1314
    137  N        -10.1680    7.3720   -1.8910 N.3    94  GLN94      -0.1245
    138  CA       -11.0980    6.2590   -1.5600 C.3    94  GLN94       0.1566
    139  C        -12.4730    6.8460   -1.2190 C.2    94  GLN94       0.2260
    140  O        -13.4830    6.4700   -1.7860 O.2    94  GLN94      -0.2867
    141  CB       -10.5570    5.5020   -0.3450 C.3    94  GLN94       0.0367
    142  CG        -9.9750    4.1640   -0.7940 C.3    94  GLN94       0.0905
    143  CD        -9.4270    3.4090    0.4170 C.2    94  GLN94       0.2608
    144  OE1      -10.1650    2.7520    1.1270 O.2    94  GLN94      -0.2717
    145  NE2       -8.1500    3.4740    0.6840 N.am   94  GLN94      -0.0878
@<TRIPOS>BOND
     1    28    29    1
     2    30    29    1
     3    30    31    2
     4    29    32    1
     5    39    40    1
     6    32    33    1
     7    44    45    1
     8    41    40    1
     9    41    42    2
    10    43    40    1
    11    20    21    1
    12    27    25    1
    13    21    22    1
    14    21    24    1
    15    33    34    1
    16    45    46    1
    17    45    48    1
    18    23    22    2
    19    25    24    1
    20    50    48    1
    21    34    35    1
    22    35    36    2
    23   137   138    1
    24   127   125   am
    25   140   139    2
    26    46    47    2
    27    24    26    1
    28   138   139    1
    29   138   141    1
    30    48    49    1
    31     1     2    1
    32    36    38    1
    33    36    37    1
    34     9    10    1
    35    11    12    2
    36    11    10    1
    37   121   120    1
    38   121   124    1
    39   121   122    1
    40     2     3    1
    41     2     5    1
    42   142   141    1
    43   142   143    1
    44   123   122    2
    45   125   124    1
    46   125   126    2
    47    10    13    1
    48     3     4    2
    49   122   128   am
    50    51    52    1
    51   143   145   am
    52   143   144    2
    53     5     6    1
    54   131   130    2
    55     6     7    1
    56     6     8    1
    57    13    14    1
    58    15    14    1
    59    15    16    1
    60   128   129    1
    61   130   129    1
    62   112   113    1
    63    52    53    1
    64    52    55    1
    65   129   132    1
    66    53    54    2
    67    56    55    1
    68    56    57    1
    69    16    17    2
    70   115   114    2
    71   114   113    1
    72   113   116    1
    73    67    65    1
    74    66    64    1
    75    94    92    1
    76   119   117    1
    77    17    18    1
    78    17    19    1
    79    65    64    1
    80   132   133    1
    81    57    58    1
    82    58    59    1
    83    64    61    1
    84   116   117    1
    85   116   118    1
    86    92    93    1
    87    92    91    2
    88   133   134    1
    89   111   109    1
    90    91    90    1
    91    61    62    1
    92    61    60    1
    93    63    62    2
    94   109   108    1
    95    62    68   am
    96   134   135    1
    97   136   135    1
    98   110   108    1
    99    90    89    1
   100   108   105    1
   101    68    69    1
   102    89    88    1
   103   102   101   ar
   104    83    81   ar
   105    69    70    1
   106    69    72    1
   107    88    85    1
   108   105   106    1
   109   105   104    1
   110   100   101    1
   111   100    99    1
   112   101   103   ar
   113   107   106    2
   114    70    76   am
   115    70    71    2
   116    80    81    1
   117    80    77    1
   118    81    82   ar
   119    72    73    1
   120    74    73    2
   121    76    77    1
   122    87    86    2
   123    86    85    1
   124    86    95   am
   125    73    75   am
   126    96    95    1
   127    96    99    1
   128    96    97    1
   129    85    84    1
   130    79    78    2
   131    77    78    1
   132    98    97    2
