@<TRIPOS>MOLECULE
tmp/2gtzA00.pdb
 185 179 0 0 0
SMALL
GASTEIGER

@<TRIPOS>ATOM
      1  N         30.0000   22.5350   39.8930 N.3    70  HIS70      -0.1241
      2  CA        29.5370   22.3810   38.5210 C.3    70  HIS70       0.1621
      3  C         29.5190   23.7380   37.8050 C.2    70  HIS70       0.2264
      4  O         29.9590   23.8500   36.6510 O.2    70  HIS70      -0.2867
      5  CB        28.0880   21.8940   38.4810 C.3    70  HIS70       0.0745
      6  CG        27.8930   20.4180   38.6810 C.ar   70  HIS70       0.0817
      7  ND1       28.2920   19.7520   39.8160 N.ar   70  HIS70      -0.2268
      8  CD2       27.2450   19.4980   37.9170 C.ar   70  HIS70       0.1154
      9  CE1       27.9140   18.4780   39.7500 C.ar   70  HIS70       0.1986
     10  NE2       27.2650   18.3020   38.6040 N.ar   70  HIS70      -0.2212
     11  N         33.0520   24.7590   36.8690 N.3    73  THR73      -0.1203
     12  CA        33.6260   23.9690   35.7810 C.3    73  THR73       0.1994
     13  C         33.0830   24.4710   34.4500 C.2    73  THR73       0.2617
     14  O         33.8450   24.6990   33.4850 O.2    73  THR73      -0.2717
     15  CB        33.2870   22.4860   36.0310 C.3    73  THR73       0.1784
     16  OG1       34.1040   22.0050   37.1230 O.3    73  THR73      -0.2211
     17  CG2       33.5670   21.6960   34.8690 C.3    73  THR73       0.0376
     18  N         31.7830   24.7800   34.4150 N.am   74  HIS74      -0.1975
     19  CA        31.1880   25.2440   33.1520 C.3    74  HIS74       0.1656
     20  C         31.6710   26.6380   32.7900 C.2    74  HIS74       0.2291
     21  O         31.7970   26.9410   31.6140 O.2    74  HIS74      -0.2864
     22  CB        29.6620   25.1670   33.1980 C.3    74  HIS74       0.0771
     23  CG        29.1570   23.7700   33.0480 C.ar   74  HIS74       0.0820
     24  ND1       29.1560   22.8720   34.0910 N.ar   74  HIS74      -0.2267
     25  CD2       28.7090   23.0920   31.9690 C.ar   74  HIS74       0.1154
     26  CE1       28.6820   21.7110   33.6740 C.ar   74  HIS74       0.1986
     27  NE2       28.4050   21.8180   32.3890 N.ar   74  HIS74      -0.2212
     28  N         34.7680   27.7670   33.3090 N.3    76  VAL76      -0.1231
     29  CA        36.0450   27.4750   32.6370 C.3    76  VAL76       0.1692
     30  C         35.8320   26.9210   31.2230 C.2    76  VAL76       0.2592
     31  O         36.4780   27.4120   30.2610 O.2    76  VAL76      -0.2718
     32  CB        36.8770   26.5180   33.4780 C.3    76  VAL76       0.0266
     33  CG1       38.1770   26.1000   32.7380 C.3    76  VAL76       0.0020
     34  CG2       37.2300   27.2260   34.7820 C.3    76  VAL76       0.0020
     35  N         34.9160   25.9510   31.0980 N.am   77  ASP77      -0.1974
     36  CA        34.5120   25.3840   29.7830 C.3    77  ASP77       0.1709
     37  C         34.2140   26.4050   28.6970 C.2    77  ASP77       0.2293
     38  O         34.6350   26.2040   27.5600 O.2    77  ASP77      -0.2864
     39  CB        33.3220   24.4500   29.8830 C.3    77  ASP77       0.1436
     40  CG        33.6290   23.1950   30.6470 C.2    77  ASP77       0.3671
     41  OD1       34.8190   22.9610   30.9760 O.co2  77  ASP77      -0.2456
     42  OD2       32.6680   22.4690   30.9550 O.co2  77  ASP77      -0.2456
     43  N         37.4810   27.6170   27.4050 N.3    80  THR80      -0.1203
     44  CA        38.2070   26.5110   26.7270 C.3    80  THR80       0.1994
     45  C         37.6090   26.2330   25.3470 C.2    80  THR80       0.2617
     46  O         38.3530   26.1140   24.3480 O.2    80  THR80      -0.2717
     47  CB        38.0870   25.2240   27.5590 C.3    80  THR80       0.1784
     48  OG1       38.6460   25.4540   28.8710 O.3    80  THR80      -0.2211
     49  CG2       38.8210   24.0490   26.9130 C.3    80  THR80       0.0376
     50  N         36.2760   26.1840   25.2930 N.am   81  LEU81      -0.1979
     51  CA        35.5770   25.9440   24.0210 C.3    81  LEU81       0.1596
     52  C         35.7690   27.0930   23.0210 C.2    81  LEU81       0.2287
     53  O         35.9390   26.8870   21.8250 O.2    81  LEU81      -0.2864
     54  CB        34.1070   25.6710   24.2830 C.3    81  LEU81       0.0297
     55  CG        33.8990   24.3270   24.9940 C.3    81  LEU81       0.0022
     56  CD1       32.5000   24.1830   25.6090 C.3    81  LEU81       0.0001
     57  CD2       34.1470   23.2150   24.0030 C.3    81  LEU81       0.0001
     58  N         39.0950   26.1820   21.6820 N.3    84  TYR84      -0.1241
     59  CA        39.0340   25.0200   20.7820 C.3    84  TYR84       0.1605
     60  C         38.4800   25.3380   19.3830 C.2    84  TYR84       0.2264
     61  O         38.9090   24.7350   18.3920 O.2    84  TYR84      -0.2867
     62  CB        38.1570   23.9180   21.3360 C.3    84  TYR84       0.0534
     63  CG        38.7210   23.1240   22.5300 C.ar   84  TYR84      -0.0201
     64  CD1       40.0220   23.2640   22.9850 C.ar   84  TYR84      -0.0009
     65  CD2       37.9200   22.1780   23.1330 C.ar   84  TYR84      -0.0009
     66  CE1       40.4860   22.5190   24.0760 C.ar   84  TYR84       0.0417
     67  CE2       38.3700   21.4230   24.2010 C.ar   84  TYR84       0.0417
     68  CZ        39.6670   21.5850   24.6530 C.ar   84  TYR84       0.1957
     69  OH        40.1210   20.8250   25.7390 O.3    84  TYR84      -0.2866
     70  N         24.6850   20.4950   29.7810 N.3    97  ARG97      -0.1245
     71  CA        25.0530   19.1570   30.2090 C.3    97  ARG97       0.1563
     72  C         23.8020   18.5120   30.7850 C.2    97  ARG97       0.2260
     73  O         23.0240   19.1710   31.4500 O.2    97  ARG97      -0.2867
     74  CB        26.1560   19.2150   31.2760 C.3    97  ARG97       0.0307
     75  CG        26.7050   17.7840   31.6390 C.3    97  ARG97       0.0489
     76  CD        27.5830   17.7450   32.8730 C.3    97  ARG97       0.2205
     77  NE        28.7430   18.6220   32.7370 N.pl3  97  ARG97      -0.0865
     78  CZ        29.9980   18.2400   32.5500 C.cat  97  ARG97       0.5346
     79  NH1       30.9430   19.1540   32.4720 N.pl3  97  ARG97       0.1354
     80  NH2       30.3430   16.9790   32.4370 N.pl3  97  ARG97       0.1354
     81  N         22.5870   14.7380   32.7430 N.3    99  TYR99      -0.1241
     82  CA        22.9250   13.3580   33.0950 C.3    99  TYR99       0.1605
     83  C         21.9290   12.7080   34.0050 C.2    99  TYR99       0.2264
     84  O         21.1650   13.4000   34.6460 O.2    99  TYR99      -0.2867
     85  CB        24.3360   13.3030   33.7130 C.3    99  TYR99       0.0534
     86  CG        24.6370   14.0580   35.0010 C.ar   99  TYR99      -0.0201
     87  CD1       24.1380   13.6390   36.2100 C.ar   99  TYR99      -0.0009
     88  CD2       25.4570   15.2060   34.9970 C.ar   99  TYR99      -0.0009
     89  CE1       24.4570   14.2770   37.3930 C.ar   99  TYR99       0.0417
     90  CE2       25.7950   15.8230   36.1900 C.ar   99  TYR99       0.0417
     91  CZ        25.2680   15.3660   37.3650 C.ar   99  TYR99       0.1957
     92  OH        25.5790   15.9830   38.5690 O.3    99  TYR99      -0.2866
     93  N         25.1170   10.6740   30.1460 N.3   114  HIS114     -0.1241
     94  CA        25.8570   11.8450   30.5790 C.3   114  HIS114      0.1621
     95  C         26.3370   12.4850   29.2770 C.2   114  HIS114      0.2264
     96  O         27.2050   11.9260   28.6160 O.2   114  HIS114     -0.2867
     97  CB        27.0750   11.4820   31.4640 C.3   114  HIS114      0.0745
     98  CG        27.7480   12.6810   32.0870 C.ar  114  HIS114      0.0817
     99  ND1       27.8580   12.8540   33.4520 N.ar  114  HIS114     -0.2268
    100  CD2       28.3250   13.7680   31.5300 C.ar  114  HIS114      0.1154
    101  CE1       28.4740   13.9970   33.7040 C.ar  114  HIS114      0.1986
    102  NE2       28.7720   14.5680   32.5530 N.ar  114  HIS114     -0.2212
    103  N         26.8270   16.2610   26.7260 N.3   116  TYR116     -0.1241
    104  CA        27.2820   17.6430   26.7720 C.3   116  TYR116      0.1605
    105  C         27.0440   18.2100   25.3900 C.2   116  TYR116      0.2264
    106  O         27.2660   17.4900   24.3760 O.2   116  TYR116     -0.2867
    107  CB        28.7990   17.6440   27.0710 C.3   116  TYR116      0.0534
    108  CG        29.3680   18.9210   27.5360 C.ar  116  TYR116     -0.0201
    109  CD1       29.6710   19.9370   26.6250 C.ar  116  TYR116     -0.0009
    110  CD2       29.6610   19.1380   28.8820 C.ar  116  TYR116     -0.0009
    111  CE1       30.2270   21.1400   27.0420 C.ar  116  TYR116      0.0417
    112  CE2       30.2160   20.3260   29.2890 C.ar  116  TYR116      0.0417
    113  CZ        30.5020   21.3140   28.3560 C.ar  116  TYR116      0.1957
    114  OH        31.0750   22.5050   28.7510 O.3   116  TYR116     -0.2866
    115  N         28.2360   17.5150   21.6700 N.3   123  TYR123     -0.1241
    116  CA        29.6570   17.7350   21.7990 C.3   123  TYR123      0.1605
    117  C         30.3260   16.4340   22.2020 C.2   123  TYR123      0.2264
    118  O         31.0260   15.8310   21.3930 O.2   123  TYR123     -0.2867
    119  CB        29.9390   18.8830   22.8170 C.3   123  TYR123      0.0534
    120  CG        31.3890   19.1740   22.9810 C.ar  123  TYR123     -0.0201
    121  CD1       32.0890   19.8960   21.9950 C.ar  123  TYR123     -0.0009
    122  CD2       32.1070   18.6780   24.0870 C.ar  123  TYR123     -0.0009
    123  CE1       33.4540   20.1060   22.1230 C.ar  123  TYR123      0.0417
    124  CE2       33.4660   18.9170   24.2380 C.ar  123  TYR123      0.0417
    125  CZ        34.1330   19.6310   23.2480 C.ar  123  TYR123      0.1957
    126  OH        35.5030   19.8590   23.3940 O.3   123  TYR123     -0.2866
    127  N         38.7410   16.7980   24.0780 N.3   143  THR143     -0.1218
    128  CA        38.1030   16.4850   25.3760 C.3   143  THR143      0.1862
    129  C         38.1020   14.9840   25.6530 C.2   143  THR143      0.2287
    130  O         38.4470   14.5460   26.7650 O.2   143  THR143     -0.2866
    131  CB        36.7020   17.0530   25.4160 C.3   143  THR143      0.1770
    132  OG1       36.8050   18.4870   25.2800 O.3   143  THR143     -0.2211
    133  CG2       35.9850   16.7160   26.7550 C.3   143  THR143      0.0375
    134  N         41.5040   13.8540   26.8580 N.3   146  LYS146     -0.1231
    135  CA        41.7610   14.3300   28.2340 C.3   146  LYS146      0.1693
    136  C         40.9330   13.5710   29.2830 C.2   146  LYS146      0.2592
    137  O         41.4130   13.2940   30.4190 O.2   146  LYS146     -0.2718
    138  CB        41.4360   15.8240   28.3110 C.3   146  LYS146      0.0285
    139  CG        42.4330   16.7180   27.5540 C.3   146  LYS146      0.0035
    140  CD        41.9910   18.1670   27.6230 C.3   146  LYS146      0.0206
    141  CE        43.0470   19.0040   26.8800 C.3   146  LYS146      0.1093
    142  NZ        42.6590   20.4180   26.8130 N.3   146  LYS146     -0.1314
    143  N         39.7010   13.2600   28.9150 N.am  147  TRP147     -0.1976
    144  CA        38.7960   12.5680   29.8580 C.3   147  TRP147      0.1640
    145  C         39.1390   11.0780   29.9480 C.2   147  TRP147      0.2290
    146  O         38.9340   10.4400   31.0010 O.2   147  TRP147     -0.2864
    147  CB        37.3280   12.7890   29.4510 C.3   147  TRP147      0.0576
    148  CG        36.8130   14.1630   29.8360 C.ar  147  TRP147      0.0006
    149  CD1       37.5290   15.2010   30.3760 C.ar  147  TRP147      0.0946
    150  CD2       35.4870   14.6100   29.6830 C.ar  147  TRP147      0.0152
    151  NE1       36.6910   16.2810   30.5820 N.ar  147  TRP147     -0.2442
    152  CE2       35.4270   15.9380   30.1690 C.ar  147  TRP147      0.0810
    153  CE3       34.3200   13.9990   29.2290 C.ar  147  TRP147      0.0012
    154  CZ2       34.2410   16.6680   30.1770 C.ar  147  TRP147      0.0191
    155  CZ3       33.1080   14.7200   29.2520 C.ar  147  TRP147      0.0001
    156  CH2       33.0970   16.0590   29.7030 C.ar  147  TRP147      0.0015
    157  N         42.2140   10.9550   32.2330 N.3   150  ALA150     -0.1245
    158  CA        41.8270   11.2420   33.6330 C.3   150  ALA150      0.1562
    159  C         40.8330   10.2420   34.2060 C.2   150  ALA150      0.2260
    160  O         40.3370   10.4360   35.3320 O.2   150  ALA150     -0.2867
    161  CB        41.2740   12.6330   33.7540 C.3   150  ALA150      0.0290
    162  N         37.6610    9.6390   33.6720 N.3   152  VAL152     -0.1245
    163  CA        36.3850   10.2820   33.9960 C.3   152  VAL152      0.1561
    164  C         35.2060    9.2920   33.9270 C.2   152  VAL152      0.2260
    165  O         34.2970    9.3060   34.7880 O.2   152  VAL152     -0.2867
    166  CB        36.1170   11.4490   33.0350 C.3   152  VAL152      0.0252
    167  CG1       34.6680   11.9870   33.1520 C.3   152  VAL152      0.0019
    168  CG2       37.1240   12.5640   33.2510 C.3   152  VAL152      0.0019
    169  N         34.3820    7.1750   37.0510 N.3   155  GLN155     -0.1231
    170  CA        33.7620    7.9370   38.1280 C.3   155  GLN155      0.1698
    171  C         32.2810    8.1630   37.8390 C.2   155  GLN155      0.2592
    172  O         31.4070    8.0620   38.7260 O.2   155  GLN155     -0.2718
    173  CB        34.4170    9.3290   38.2030 C.3   155  GLN155      0.0381
    174  CG        35.8760    9.3380   38.6340 C.3   155  GLN155      0.0905
    175  CD        36.5920   10.5800   38.0800 C.2   155  GLN155      0.2608
    176  OE1       37.8010   10.7280   38.2200 O.2   155  GLN155     -0.2717
    177  NE2       35.8320   11.4610   37.4140 N.am  155  GLN155     -0.0878
    178  N         32.0060    8.4990   36.5840 N.am  156  LEU156     -0.1980
    179  CA        30.6300    8.6750   36.1440 C.3   156  LEU156      0.1596
    180  C         29.8210    7.3950   36.2550 C.2   156  LEU156      0.2287
    181  O         28.6890    7.4350   36.7610 O.2   156  LEU156     -0.2864
    182  CB        30.5970    9.1360   34.7030 C.3   156  LEU156      0.0297
    183  CG        30.4790   10.6310   34.4900 C.3   156  LEU156      0.0022
    184  CD1       31.0690   11.5600   35.5420 C.3   156  LEU156      0.0001
    185  CD2       30.9190   10.9790   33.0780 C.3   156  LEU156      0.0001
@<TRIPOS>BOND
     1    61    60    2
     2    60    59    1
     3    59    62    1
     4    59    58    1
     5    62    63    1
     6   118   117    2
     7   115   116    1
     8   116   117    1
     9   116   119    1
    10    53    52    2
    11   121   123   ar
    12   121   120   ar
    13   123   125   ar
    14    63    64   ar
    15    63    65   ar
    16   119   120    1
    17   120   122   ar
    18    64    66   ar
    19    52    51    1
    20    65    67   ar
    21   125   126    1
    22   125   124   ar
    23    57    55    1
    24    51    54    1
    25    51    50    1
    26    66    68   ar
    27   127   128    1
    28   122   124   ar
    29    67    68   ar
    30    54    55    1
    31    46    45    2
    32   106   105    2
    33    68    69    1
    34    55    56    1
    35   132   131    1
    36    50    45   am
    37    45    44    1
    38   128   131    1
    39   128   129    1
    40   105   104    1
    41   131   133    1
    42   129   130    2
    43   109   111   ar
    44   109   108   ar
    45   103   104    1
    46    44    43    1
    47    44    47    1
    48   104   107    1
    49   142   141    1
    50   134   135    1
    51   141   140    1
    52    49    47    1
    53   111   113   ar
    54   107   108    1
    55   108   110   ar
    56   139   140    1
    57   139   138    1
    58    47    48    1
    59    38    37    2
    60   135   138    1
    61   135   136    1
    62   113   114    1
    63   113   112   ar
    64    96    95    2
    65    37    36    1
    66   110   112   ar
    67   143   136   am
    68   143   144    1
    69   153   155   ar
    70   153   150   ar
    71   155   156   ar
    72    95    94    1
    73   136   137    2
    74   147   148    1
    75   147   144    1
    76   150   148   ar
    77   150   152   ar
    78   156   154   ar
    79    70    71    1
    80    36    39    1
    81    36    35    1
    82   148   149   ar
    83   144   145    1
    84    39    40    1
    85   145   146    2
    86    93    94    1
    87   152   154   ar
    88   152   151   ar
    89    71    72    1
    90    71    74    1
    91    31    30    2
    92   149   151   ar
    93    94    97    1
    94    40    42   ar
    95    40    41   ar
    96    72    73    2
    97    35    30   am
    98    30    29    1
    99    74    75    1
   100    97    98    1
   101   100    98   ar
   102   100   102   ar
   103    21    20    2
   104    75    76    1
   105    25    27   ar
   106    25    23   ar
   107    98    99   ar
   108   157   158    1
   109    27    26   ar
   110    80    78    1
   111    79    78    1
   112    78    77    2
   113   102   101   ar
   114    29    28    1
   115    29    32    1
   116    77    76    1
   117    33    32    1
   118    81    82    1
   119    20    19    1
   120   166   167    1
   121   166   168    1
   122   166   163    1
   123    23    22    1
   124    23    24   ar
   125   185   183    1
   126    82    85    1
   127    82    83    1
   128    19    22    1
   129    19    18    1
   130    99   101   ar
   131    32    34    1
   132    14    13    2
   133   158   161    1
   134   158   159    1
   135   162   163    1
   136    26    24   ar
   137    85    86    1
   138   164   163    1
   139   164   165    2
   140    83    84    2
   141   159   160    2
   142    18    13   am
   143    13    12    1
   144   183   182    1
   145   183   184    1
   146   182   179    1
   147    17    15    1
   148    88    86   ar
   149    88    90   ar
   150    86    87   ar
   151    12    15    1
   152    12    11    1
   153    15    16    1
   154   179   180    1
   155   179   178    1
   156    90    91   ar
   157    87    89   ar
   158   180   181    2
   159   178   171   am
   160     4     3    2
   161   169   170    1
   162    91    89   ar
   163    91    92    1
   164   177   175   am
   165     3     2    1
   166   171   170    1
   167   171   172    2
   168     8    10   ar
   169     8     6   ar
   170   175   176    2
   171   175   174    1
   172   170   173    1
   173   173   174    1
   174     5     2    1
   175     5     6    1
   176     2     1    1
   177    10     9   ar
   178     6     7   ar
   179     9     7   ar
