@<TRIPOS>MOLECULE
tmp/2gu4A00.pdb
 165 159 0 0 0
SMALL
GASTEIGER

@<TRIPOS>ATOM
      1  N         -9.8260    5.7840   -2.2150 N.3    56  CYS56      -0.1235
      2  CA       -10.5690    4.5870   -2.5920 C.3    56  CYS56       0.1677
      3  C        -11.2260    4.7060   -3.9590 C.2    56  CYS56       0.2270
      4  O        -11.2200    3.7620   -4.7510 O.2    56  CYS56      -0.2867
      5  CB       -11.6490    4.2920   -1.5500 C.3    56  CYS56       0.0956
      6  SG       -11.0090    3.8720    0.0740 S.3    56  CYS56      -0.0801
      7  N         -9.7730    3.4610   -7.3580 N.3    59  TYR59      -0.1241
      8  CA        -8.6760    2.5390   -7.0910 C.3    59  TYR59       0.1605
      9  C         -9.0370    1.1410   -7.5900 C.2    59  TYR59       0.2264
     10  O         -9.9050    0.4740   -7.0260 O.2    59  TYR59      -0.2867
     11  CB        -8.3720    2.4970   -5.5970 C.3    59  TYR59       0.0534
     12  CG        -7.2690    1.5330   -5.2410 C.ar   59  TYR59      -0.0201
     13  CD1       -5.9420    1.8020   -5.5810 C.ar   59  TYR59      -0.0009
     14  CD2       -7.5530    0.3480   -4.5710 C.ar   59  TYR59      -0.0009
     15  CE1       -4.9220    0.9050   -5.2550 C.ar   59  TYR59       0.0417
     16  CE2       -6.5480   -0.5520   -4.2410 C.ar   59  TYR59       0.0417
     17  CZ        -5.2360   -0.2700   -4.5830 C.ar   59  TYR59       0.1957
     18  OH        -4.2480   -1.1650   -4.2440 O.3    59  TYR59      -0.2866
     19  N        -12.6510    0.6910   -7.8520 N.3    62  TYR62      -0.1241
     20  CA       -13.5730    0.8560   -6.7300 C.3    62  TYR62       0.1605
     21  C        -14.5240    2.0200   -7.0240 C.2    62  TYR62       0.2264
     22  O        -14.0850    3.1460   -7.2570 O.2    62  TYR62      -0.2867
     23  CB       -12.8080    1.1110   -5.4340 C.3    62  TYR62       0.0534
     24  CG       -13.6970    0.9750   -4.2310 C.ar   62  TYR62      -0.0201
     25  CD1      -14.1470   -0.2790   -3.8150 C.ar   62  TYR62      -0.0009
     26  CD2      -14.1490    2.1000   -3.5480 C.ar   62  TYR62      -0.0009
     27  CE1      -15.0320   -0.4070   -2.7530 C.ar   62  TYR62       0.0417
     28  CE2      -15.0340    1.9830   -2.4840 C.ar   62  TYR62       0.0417
     29  CZ       -15.4730    0.7310   -2.0940 C.ar   62  TYR62       0.1957
     30  OH       -16.3730    0.6220   -1.0610 O.3    62  TYR62      -0.2866
     31  N        -15.2590    2.4970    2.2680 N.3    67  CYS67      -0.1235
     32  CA       -15.7080    1.1150    2.3140 C.3    67  CYS67       0.1677
     33  C        -16.5580    0.9520    3.5660 C.2    67  CYS67       0.2270
     34  O        -16.1620    1.3740    4.6530 O.2    67  CYS67      -0.2867
     35  CB       -14.5210    0.1550    2.3730 C.3    67  CYS67       0.0956
     36  SG       -13.4830    0.1820    0.9000 S.3    67  CYS67      -0.0801
     37  N        -14.5380   -7.0640    4.7120 N.3    75  CYS75      -0.1221
     38  CA       -13.9690   -5.7910    4.2970 C.3    75  CYS75       0.1808
     39  C        -14.3900   -5.4290    2.8820 C.2    75  CYS75       0.2601
     40  O        -14.9880   -6.2370    2.1660 O.2    75  CYS75      -0.2717
     41  CB       -12.4380   -5.8500    4.3670 C.3    75  CYS75       0.0970
     42  SG       -11.6770   -7.0800    3.2580 S.3    75  CYS75      -0.0800
     43  N        -14.0800   -4.1940    2.5080 N.am   76  HIS76      -0.1975
     44  CA       -14.3560   -3.6610    1.1840 C.3    76  HIS76       0.1656
     45  C        -15.8120   -3.6660    0.7460 C.2    76  HIS76       0.2291
     46  O        -16.1120   -3.7560   -0.4460 O.2    76  HIS76      -0.2864
     47  CB       -13.4850   -4.3950    0.1700 C.3    76  HIS76       0.0771
     48  CG       -12.0220   -4.3030    0.4750 C.ar   76  HIS76       0.0820
     49  ND1      -11.0710   -5.0610   -0.1740 N.ar   76  HIS76      -0.2267
     50  CD2      -11.3470   -3.5320    1.3620 C.ar   76  HIS76       0.1154
     51  CE1       -9.8740   -4.7630    0.3010 C.ar   76  HIS76       0.1986
     52  NE2      -10.0140   -3.8380    1.2330 N.ar   76  HIS76      -0.2212
     53  N        -14.3490    2.2660    6.5440 N.3    94  ASP94      -0.1239
     54  CA       -12.9300    2.4110    6.2650 C.3    94  ASP94       0.1674
     55  C        -12.6910    3.6290    5.3870 C.2    94  ASP94       0.2266
     56  O        -13.1920    3.7100    4.2630 O.2    94  ASP94      -0.2867
     57  CB       -12.4200    1.1290    5.5980 C.3    94  ASP94       0.1410
     58  CG       -10.9410    1.1820    5.2680 C.2    94  ASP94       0.3668
     59  OD1      -10.1860    1.9160    5.9440 O.co2  94  ASP94      -0.2456
     60  OD2      -10.5340    0.4690    4.3330 O.co2  94  ASP94      -0.2456
     61  N         -9.9130    6.3960    3.6220 N.3    96  THR96      -0.1218
     62  CA        -8.5490    6.6460    3.1780 C.3    96  THR96       0.1862
     63  C         -8.5720    7.9680    2.4310 C.2    96  THR96       0.2287
     64  O         -9.2130    8.0910    1.3870 O.2    96  THR96      -0.2866
     65  CB        -8.0100    5.5670    2.2320 C.3    96  THR96       0.1770
     66  OG1       -8.1350    4.2780    2.8430 O.3    96  THR96      -0.2211
     67  CG2       -6.5320    5.8320    1.9410 C.3    96  THR96       0.0375
     68  N         -4.9850    6.2960    6.2770 N.3   105  ASP105     -0.1239
     69  CA        -5.9210    5.1730    6.2120 C.3   105  ASP105      0.1674
     70  C         -6.3330    4.6950    7.6080 C.2   105  ASP105      0.2266
     71  O         -5.4850    4.3450    8.4270 O.2   105  ASP105     -0.2867
     72  CB        -5.2470    4.0310    5.4360 C.3   105  ASP105      0.1410
     73  CG        -6.2100    2.9330    5.0350 C.2   105  ASP105      0.3668
     74  OD1       -7.4240    3.0650    5.2880 O.co2 105  ASP105     -0.2456
     75  OD2       -5.7390    1.9310    4.4500 O.co2 105  ASP105     -0.2456
     76  N         -6.1050  -10.6580    3.8710 N.3   165  TYR165     -0.1227
     77  CA        -5.9280   -9.2200    3.8030 C.3   165  TYR165      0.1736
     78  C         -5.0530   -8.8120    4.9690 C.2   165  TYR165      0.2595
     79  O         -5.0930   -9.4290    6.0340 O.2   165  TYR165     -0.2718
     80  CB        -7.2800   -8.5120    3.8190 C.3   165  TYR165      0.0548
     81  CG        -8.0610   -8.7780    2.5540 C.ar  165  TYR165     -0.0200
     82  CD1       -8.6970  -10.0010    2.3500 C.ar  165  TYR165     -0.0009
     83  CD2       -8.1120   -7.8310    1.5340 C.ar  165  TYR165     -0.0009
     84  CE1       -9.3630  -10.2760    1.1590 C.ar  165  TYR165      0.0417
     85  CE2       -8.7730   -8.0970    0.3400 C.ar  165  TYR165      0.0417
     86  CZ        -9.3950   -9.3220    0.1590 C.ar  165  TYR165      0.1957
     87  OH       -10.0410   -9.5910   -1.0260 O.3   165  TYR165     -0.2866
     88  N         -4.2520   -7.7770    4.7620 N.am  166  CYS166     -0.1970
     89  CA        -3.3230   -7.3470    5.7920 C.3   166  CYS166      0.1712
     90  C         -3.0610   -5.8530    5.7780 C.2   166  CYS166      0.2296
     91  O         -3.5780   -5.1200    4.9310 O.2   166  CYS166     -0.2864
     92  CB        -1.9970   -8.0670    5.5720 C.3   166  CYS166      0.0983
     93  SG        -1.3250   -7.7360    3.9210 S.3   166  CYS166     -0.0798
     94  N         -0.4000   -2.5410    5.5820 N.3   168  HIS168     -0.1241
     95  CA         0.5340   -2.2480    4.5050 C.3   168  HIS168      0.1621
     96  C          1.2800   -0.9440    4.6950 C.2   168  HIS168      0.2264
     97  O          0.8120   -0.0440    5.3890 O.2   168  HIS168     -0.2867
     98  CB        -0.2550   -2.1700    3.2010 C.3   168  HIS168      0.0745
     99  CG        -1.4530   -1.2740    3.2940 C.ar  168  HIS168      0.0817
    100  ND1       -1.3810    0.0910    3.1150 N.ar  168  HIS168     -0.2268
    101  CD2       -2.7350   -1.5380    3.6450 C.ar  168  HIS168      0.1154
    102  CE1       -2.5640    0.6300    3.3540 C.ar  168  HIS168      0.1986
    103  NE2       -3.4030   -0.3370    3.6800 N.ar  168  HIS168     -0.2212
    104  N         -0.7580    4.4230   -1.8740 N.3   174  PHE174     -0.1227
    105  CA        -1.8340    3.8260   -1.0760 C.3   174  PHE174      0.1736
    106  C         -1.3140    2.5870   -0.3500 C.2   174  PHE174      0.2595
    107  O         -1.4120    2.4760    0.8770 O.2   174  PHE174     -0.2718
    108  CB        -2.9950    3.4370   -2.0040 C.3   174  PHE174      0.0547
    109  CG        -4.3140    3.2200   -1.3020 C.ar  174  PHE174     -0.0202
    110  CD1       -4.3800    3.0190    0.0730 C.ar  174  PHE174     -0.0042
    111  CD2       -5.4970    3.1880   -2.0380 C.ar  174  PHE174     -0.0042
    112  CE1       -5.6090    2.7880    0.7030 C.ar  174  PHE174     -0.0003
    113  CE2       -6.7230    2.9590   -1.4190 C.ar  174  PHE174     -0.0003
    114  CZ        -6.7770    2.7590   -0.0480 C.ar  174  PHE174     -0.0000
    115  N         -0.7710    1.6520   -1.1200 N.am  175  HIS175     -0.1975
    116  CA        -0.2160    0.4320   -0.5560 C.3   175  HIS175      0.1656
    117  C          1.2460    0.3040   -0.9570 C.2   175  HIS175      0.2291
    118  O          1.5650    0.1630   -2.1370 O.2   175  HIS175     -0.2864
    119  CB        -0.9870   -0.7920   -1.0470 C.3   175  HIS175      0.0771
    120  CG        -2.4550   -0.7380   -0.7610 C.ar  175  HIS175      0.0820
    121  ND1       -3.3350    0.0010   -1.5220 N.ar  175  HIS175     -0.2267
    122  CD2       -3.1970   -1.3270    0.2070 C.ar  175  HIS175      0.1154
    123  CE1       -4.5570   -0.1380   -1.0380 C.ar  175  HIS175      0.1986
    124  NE2       -4.5010   -0.9380    0.0120 N.ar  175  HIS175     -0.2212
    125  N         -4.3710   -3.3700   10.5260 N.3   201  GLU201     -0.1245
    126  CA        -5.8240   -3.4010   10.3900 C.3   201  GLU201      0.1567
    127  C         -6.3720   -4.8120   10.5080 C.2   201  GLU201      0.2260
    128  O         -6.9560   -5.3450    9.5650 O.2   201  GLU201     -0.2867
    129  CB        -6.2000   -2.8120    9.0290 C.3   201  GLU201      0.0388
    130  CG        -5.3980   -3.4090    7.8840 C.3   201  GLU201      0.1160
    131  CD        -5.6460   -2.7050    6.5680 C.2   201  GLU201      0.3649
    132  OE1       -6.7490   -2.8580    6.0110 O.co2 201  GLU201     -0.2457
    133  OE2       -4.7350   -1.9900    6.0960 O.co2 201  GLU201     -0.2457
    134  N        -15.1200   -7.1880   -4.9620 N.3   218  TRP218     -0.1241
    135  CA       -14.6860   -6.3790   -3.8280 C.3   218  TRP218      0.1605
    136  C        -15.1760   -6.9210   -2.4910 C.2   218  TRP218      0.2264
    137  O        -14.3850   -7.1990   -1.5900 O.2   218  TRP218     -0.2867
    138  CB       -15.1750   -4.9350   -3.9810 C.3   218  TRP218      0.0550
    139  CG       -14.4150   -4.1470   -4.9930 C.ar  218  TRP218      0.0003
    140  CD1      -14.8570   -3.7330   -6.2180 C.ar  218  TRP218      0.0946
    141  CD2      -13.0690   -3.6780   -4.8710 C.ar  218  TRP218      0.0152
    142  NE1      -13.8670   -3.0310   -6.8660 N.ar  218  TRP218     -0.2442
    143  CE2      -12.7590   -2.9830   -6.0610 C.ar  218  TRP218      0.0810
    144  CE3      -12.0930   -3.7770   -3.8700 C.ar  218  TRP218      0.0012
    145  CZ2      -11.5120   -2.3890   -6.2780 C.ar  218  TRP218      0.0191
    146  CZ3      -10.8510   -3.1860   -4.0840 C.ar  218  TRP218      0.0001
    147  CH2      -10.5740   -2.5000   -5.2810 C.ar  218  TRP218      0.0015
    148  N        -13.1530   -5.2200   12.3030 N.3   230  GLN230     -0.1245
    149  CA       -11.8520   -4.6690   11.9470 C.3   230  GLN230      0.1566
    150  C        -11.6830   -3.2370   12.4340 C.2   230  GLN230      0.2260
    151  O        -12.6460   -2.4750   12.4920 O.2   230  GLN230     -0.2867
    152  CB       -11.6820   -4.6910   10.4230 C.3   230  GLN230      0.0367
    153  CG       -10.4390   -3.9660    9.8940 C.3   230  GLN230      0.0905
    154  CD       -10.3390   -4.0010    8.3740 C.2   230  GLN230      0.2608
    155  OE1      -11.2920   -3.6660    7.6690 O.2   230  GLN230     -0.2717
    156  NE2       -9.1760   -4.4030    7.8630 N.am  230  GLN230     -0.0878
    157  N         -8.4820   -0.0940   12.1220 N.3   232  GLU232     -0.1245
    158  CA        -7.2160    0.2170   11.4740 C.3   232  GLU232      0.1567
    159  C         -6.6660    1.5790   11.8600 C.2   232  GLU232      0.2260
    160  O         -7.4110    2.5470   12.0300 O.2   232  GLU232     -0.2867
    161  CB        -7.3680    0.1680    9.9450 C.3   232  GLU232      0.0388
    162  CG        -6.2090    0.8360    9.1820 C.3   232  GLU232      0.1160
    163  CD        -6.3190    0.6800    7.6720 C.2   232  GLU232      0.3649
    164  OE1       -7.4560    0.6270    7.1630 O.co2 232  GLU232     -0.2457
    165  OE2       -5.2670    0.6290    6.9970 O.co2 232  GLU232     -0.2457
@<TRIPOS>BOND
     1    19    20    1
     2     9     8    1
     3     9    10    2
     4     7     8    1
     5    22    21    2
     6     8    11    1
     7    21    20    1
     8   142   140   ar
     9   142   143   ar
    10    20    23    1
    11   145   143   ar
    12   145   147   ar
    13   140   139   ar
    14   143   141   ar
    15    11    12    1
    16    13    15   ar
    17    13    12   ar
    18    23    24    1
    19   147   146   ar
    20    15    17   ar
    21    12    14   ar
    22   139   141   ar
    23   139   138    1
    24   134   135    1
    25   141   144   ar
    26     4     3    2
    27    17    18    1
    28    17    16   ar
    29    14    16   ar
    30    24    25   ar
    31    24    26   ar
    32   146   144   ar
    33   138   135    1
    34     3     2    1
    35   135   136    1
    36    25    27   ar
    37    26    28   ar
    38    27    29   ar
    39     2     1    1
    40     2     5    1
    41   136   137    2
    42    28    29   ar
    43   118   117    2
    44    29    30    1
    45   111   113   ar
    46   111   109   ar
    47   108   109    1
    48   108   105    1
    49   104   105    1
    50     5     6    1
    51   121   123   ar
    52   121   120   ar
    53   113   114   ar
    54   109   110   ar
    55   115   116    1
    56   115   106   am
    57   105   106    1
    58   119   120    1
    59   119   116    1
    60   123   124   ar
    61    87    86    1
    62   117   116    1
    63   120   122   ar
    64    46    45    2
    65   106   107    2
    66    49    51   ar
    67    49    48   ar
    68   114   112   ar
    69   124   122   ar
    70   110   112   ar
    71    86    85   ar
    72    86    84   ar
    73    47    48    1
    74    47    44    1
    75    51    52   ar
    76    85    83   ar
    77    48    50   ar
    78    45    44    1
    79    36    35    1
    80    84    82   ar
    81    44    43    1
    82    52    50   ar
    83    64    63    2
    84    83    81   ar
    85    67    65    1
    86    40    39    2
    87    65    66    1
    88    65    62    1
    89    31    32    1
    90    32    35    1
    91    32    33    1
    92    82    81   ar
    93    63    62    1
    94    43    39   am
    95    81    80    1
    96    39    38    1
    97   100    99   ar
    98   100   102   ar
    99    62    61    1
   100    98    99    1
   101    98    95    1
   102    42    41    1
   103    99   101   ar
   104   102   103   ar
   105    33    34    2
   106   101   103   ar
   107    77    80    1
   108    77    76    1
   109    77    78    1
   110    93    92    1
   111    56    55    2
   112    38    41    1
   113    38    37    1
   114    60    58   ar
   115    75    73   ar
   116    95    96    1
   117    95    94    1
   118    96    97    2
   119    88    78   am
   120    88    89    1
   121    91    90    2
   122    78    79    2
   123    73    74   ar
   124    73    72    1
   125    58    57    1
   126    58    59   ar
   127    55    54    1
   128    72    69    1
   129    92    89    1
   130    57    54    1
   131    90    89    1
   132   132   131   ar
   133   133   131   ar
   134    69    68    1
   135    69    70    1
   136    54    53    1
   137   131   130    1
   138   165   163   ar
   139   164   163   ar
   140    70    71    2
   141   155   154    2
   142   163   162    1
   143   156   154   am
   144   130   129    1
   145   154   153    1
   146   129   126    1
   147   162   161    1
   148   128   127    2
   149   153   152    1
   150   161   158    1
   151   126   127    1
   152   126   125    1
   153   152   149    1
   154   158   159    1
   155   158   157    1
   156   159   160    2
   157   149   148    1
   158   149   150    1
   159   150   151    2
