@<TRIPOS>MOLECULE
tmp/2gu8A00.pdb
 212 203 0 0 0
SMALL
GASTEIGER

@<TRIPOS>ATOM
      1  N         -8.5070  -15.3180    8.1500 N.3    36  LEU36      -0.1231
      2  CA        -8.3280  -13.8960    8.4220 C.3    36  LEU36       0.1693
      3  C         -9.5080  -13.0070    7.9620 C.2    36  LEU36       0.2593
      4  O         -9.5090  -11.8130    8.1610 O.2    36  LEU36      -0.2718
      5  CB        -7.0550  -13.4420    7.7340 C.3    36  LEU36       0.0284
      6  CG        -5.7930  -14.2900    7.9580 C.3    36  LEU36       0.0019
      7  CD1       -4.7480  -13.7990    6.9850 C.3    36  LEU36       0.0001
      8  CD2       -5.3420  -14.1030    9.3540 C.3    36  LEU36       0.0001
      9  N        -10.4550  -13.5960    7.2680 N.am   37  GLY37      -0.1942
     10  CA       -11.6140  -12.8760    6.7520 C.3    37  GLY37       0.2014
     11  C        -12.4550  -13.7500    5.8580 C.2    37  GLY37       0.2640
     12  O        -11.9990  -14.7810    5.3820 O.2    37  GLY37      -0.2714
     13  N        -13.7070  -13.3350    5.6520 N.am   38  THR38      -0.1936
     14  CA       -14.6940  -14.0830    4.8500 C.3    38  THR38       0.2028
     15  C        -15.4740  -13.1260    3.9630 C.2    38  THR38       0.2643
     16  O        -15.6710  -11.9620    4.3170 O.2    38  THR38      -0.2714
     17  CB       -15.7500  -14.7220    5.7090 C.3    38  THR38       0.1808
     18  OG1      -16.3160  -13.7150    6.5290 O.3    38  THR38      -0.2208
     19  CG2      -15.1920  -15.8480    6.5830 C.3    38  THR38       0.0379
     20  N        -15.9390  -13.6270    2.8200 N.am   39  GLY39      -0.1939
     21  CA       -16.5980  -12.8090    1.8190 C.3    39  GLY39       0.2014
     22  C        -17.6970  -13.6440    1.1870 C.2    39  GLY39       0.2640
     23  O        -17.8990  -14.8400    1.5450 O.2    39  GLY39      -0.2714
     24  N        -18.3970  -13.0290    0.2300 N.am   40  SER40      -0.1935
     25  CA       -19.5370  -13.6550   -0.4490 C.3    40  SER40       0.2055
     26  C        -19.2850  -15.1120   -0.7420 C.2    40  SER40       0.2643
     27  O        -20.0170  -15.9620   -0.2630 O.2    40  SER40      -0.2714
     28  CB       -19.8080  -12.9450   -1.7680 C.3    40  SER40       0.2130
     29  OG       -20.5300  -11.7760   -1.4840 O.3    40  SER40      -0.2179
     30  N        -18.2280  -15.3730   -1.5200 N.am   41  PHE41      -0.1959
     31  CA       -17.9920  -16.6790   -2.0680 C.3    41  PHE41       0.1774
     32  C        -16.7140  -17.4300   -1.5940 C.2    41  PHE41       0.2659
     33  O        -16.2500  -18.2950   -2.2940 O.2    41  PHE41      -0.2711
     34  CB       -18.0600  -16.6170   -3.5970 C.3    41  PHE41       0.0574
     35  CG       -17.4170  -15.3970   -4.2230 C.ar   41  PHE41      -0.0200
     36  CD1      -18.1810  -14.5450   -5.0450 C.ar   41  PHE41      -0.0042
     37  CD2      -16.0770  -15.1400   -4.0730 C.ar   41  PHE41      -0.0042
     38  CE1      -17.6020  -13.3930   -5.6850 C.ar   41  PHE41      -0.0003
     39  CE2      -15.4680  -14.0280   -4.6740 C.ar   41  PHE41      -0.0003
     40  CZ       -16.2300  -13.1310   -5.4700 C.ar   41  PHE41      -0.0000
     41  N        -16.2270  -17.1250   -0.3820 N.am   42  GLY42      -0.1716
     42  CA       -15.0390  -17.7480    0.1910 C.2    42  GLY42       0.1480
     43  C        -14.4160  -17.0990    1.4300 C.2    42  GLY42       0.2820
     44  O        -15.0730  -16.3770    2.1970 O.2    42  GLY42      -0.2669
     45  N        -13.1360  -17.4130    1.6730 N.am   43  ARG43      -0.1929
     46  CA       -12.4190  -16.9020    2.8420 C.3    43  ARG43       0.1732
     47  C        -10.9560  -16.5740    2.4940 C.2    43  ARG43       0.2616
     48  O        -10.4540  -16.9510    1.4390 O.2    43  ARG43      -0.2715
     49  CB       -12.4730  -17.9170    4.0140 C.3    43  ARG43       0.0348
     50  CG       -11.8290  -19.2470    3.6910 C.3    43  ARG43       0.0492
     51  CD       -12.1140  -20.3590    4.7230 C.3    43  ARG43       0.2205
     52  NE       -13.5380  -20.5000    5.0580 N.pl3  43  ARG43      -0.0865
     53  CZ       -14.0780  -20.2540    6.2610 C.cat  43  ARG43       0.5346
     54  NH1      -13.3270  -19.8780    7.3040 N.pl3  43  ARG43       0.1354
     55  NH2      -15.3890  -20.4200    6.4340 N.pl3  43  ARG43       0.1354
     56  N        -10.2800  -15.8880    3.3970 N.am   44  VAL44      -0.1977
     57  CA        -8.8560  -15.6970    3.2490 C.3    44  VAL44       0.1596
     58  C         -8.1820  -16.3410    4.4400 C.2    44  VAL44       0.2287
     59  O         -8.6210  -16.2090    5.5670 O.2    44  VAL44      -0.2864
     60  CB        -8.4350  -14.2060    3.0880 C.3    44  VAL44       0.0276
     61  CG1       -6.9400  -14.1050    3.0250 C.3    44  VAL44       0.0022
     62  CG2       -8.9960  -13.6480    1.7820 C.3    44  VAL44       0.0022
     63  N         -1.2270  -15.1150    2.5940 N.3    57  ALA57      -0.1245
     64  CA        -2.6960  -15.0280    2.7510 C.3    57  ALA57       0.1562
     65  C         -3.2480  -15.7140    1.5340 C.2    57  ALA57       0.2260
     66  O         -2.9470  -15.3380    0.4000 O.2    57  ALA57      -0.2867
     67  CB        -3.1520  -13.5710    2.7960 C.3    57  ALA57       0.0290
     68  N         -6.5800  -16.6190   -0.5290 N.3    59  LYS59      -0.1231
     69  CA        -7.9900  -16.3840   -0.8390 C.3    59  LYS59       0.1693
     70  C         -8.4960  -17.6210   -1.5460 C.2    59  LYS59       0.2592
     71  O         -7.9370  -18.0210   -2.5430 O.2    59  LYS59      -0.2718
     72  CB        -8.1070  -15.2080   -1.8090 C.3    59  LYS59       0.0285
     73  CG        -9.4940  -14.7410   -2.1310 C.3    59  LYS59       0.0035
     74  CD        -9.4180  -13.3380   -2.7320 C.3    59  LYS59       0.0206
     75  CE       -10.7940  -12.8650   -3.2040 C.3    59  LYS59       0.1093
     76  NZ       -10.9360  -11.4050   -3.5160 N.3    59  LYS59      -0.1314
     77  N         -9.5630  -18.2040   -1.0210 N.am   60  ILE60      -0.1966
     78  CA       -10.1780  -19.3880   -1.5640 C.3    60  ILE60       0.1727
     79  C        -11.5670  -18.9820   -2.0420 C.2    60  ILE60       0.2616
     80  O        -12.3750  -18.4090   -1.2890 O.2    60  ILE60      -0.2715
     81  CB       -10.2320  -20.5050   -0.4760 C.3    60  ILE60       0.0290
     82  CG1       -8.8440  -20.6670    0.1520 C.3    60  ILE60       0.0022
     83  CG2      -10.8120  -21.8330   -1.0180 C.3    60  ILE60       0.0023
     84  CD1       -8.8530  -21.2130    1.5910 C.3    60  ILE60       0.0001
     85  N        -11.8370  -19.2420   -3.3090 N.am   61  LEU61      -0.1977
     86  CA       -13.0790  -18.8210   -3.9280 C.3    61  LEU61       0.1596
     87  C        -13.8110  -20.0720   -4.3650 C.2    61  LEU61       0.2287
     88  O        -13.3160  -20.8320   -5.1910 O.2    61  LEU61      -0.2864
     89  CB       -12.8560  -17.8400   -5.1000 C.3    61  LEU61       0.0297
     90  CG       -12.0260  -16.5550   -4.8560 C.3    61  LEU61       0.0022
     91  CD1      -12.1460  -15.6020   -6.0280 C.3    61  LEU61       0.0001
     92  CD2      -12.5050  -15.7730   -3.6250 C.3    61  LEU61       0.0001
     93  N         -1.5580   -5.2610   -2.9960 N.3    91  VAL91      -0.1245
     94  CA        -1.1780   -6.6060   -2.5940 C.3    91  VAL91       0.1561
     95  C         -0.4400   -7.3070   -3.7140 C.2    91  VAL91       0.2260
     96  O         -0.7030   -7.0490   -4.8940 O.2    91  VAL91      -0.2867
     97  CB        -2.4250   -7.4470   -2.1280 C.3    91  VAL91       0.0252
     98  CG1       -3.1020   -6.7680   -0.8640 C.3    91  VAL91       0.0019
     99  CG2       -3.4660   -7.6830   -3.2790 C.3    91  VAL91       0.0019
    100  N         -1.3070  -14.5440   -1.8600 N.3   107  MET107     -0.1230
    101  CA        -0.7170  -13.2390   -1.8160 C.3   107  MET107      0.1702
    102  C          0.2250  -13.0250   -0.6460 C.2   107  MET107      0.2592
    103  O          0.1270  -13.6990    0.3770 O.2   107  MET107     -0.2718
    104  CB        -1.8390  -12.1720   -1.7930 C.3   107  MET107      0.0401
    105  CG        -2.8150  -12.2730   -3.0550 C.3   107  MET107      0.0596
    106  SD        -4.3570  -11.3870   -2.7170 S.3   107  MET107     -0.1393
    107  CE        -5.2000  -12.4360   -1.5110 C.3   107  MET107      0.0692
    108  N          1.0900  -12.0160   -0.7690 N.am  108  GLU108     -0.1966
    109  CA         1.9940  -11.6340    0.3410 C.3   108  GLU108      0.1733
    110  C          1.1590  -11.3310    1.5610 C.2   108  GLU108      0.2616
    111  O          0.1150  -10.6660    1.4370 O.2   108  GLU108     -0.2715
    112  CB         2.8190  -10.4050   -0.0230 C.3   108  GLU108      0.0429
    113  CG         3.6530   -9.9280    1.1200 C.3   108  GLU108      0.1163
    114  CD         4.5070   -8.7490    0.7250 C.2   108  GLU108      0.3649
    115  OE1        5.4070   -8.9310   -0.1310 O.co2 108  GLU108     -0.2457
    116  OE2        4.2670   -7.6450    1.2730 O.co2 108  GLU108     -0.2457
    117  N          1.6120  -11.8140    2.7230 N.am  109  TYR109     -0.1960
    118  CA         0.8680  -11.6670    3.9660 C.3   109  TYR109      0.1771
    119  C          1.1110  -10.3100    4.5900 C.2   109  TYR109      0.2619
    120  O          2.2620   -9.8760    4.7250 O.2   109  TYR109     -0.2715
    121  CB         1.2310  -12.7730    4.9400 C.3   109  TYR109      0.0574
    122  CG         0.6120  -12.6100    6.2950 C.ar  109  TYR109     -0.0198
    123  CD1       -0.7760  -12.6390    6.4480 C.ar  109  TYR109     -0.0009
    124  CD2        1.4010  -12.4200    7.4340 C.ar  109  TYR109     -0.0009
    125  CE1       -1.3700  -12.4580    7.6800 C.ar  109  TYR109      0.0417
    126  CE2        0.8020  -12.2520    8.6910 C.ar  109  TYR109      0.0417
    127  CZ        -0.5940  -12.2690    8.7910 C.ar  109  TYR109      0.1957
    128  OH        -1.2360  -12.1010    9.9940 O.3   109  TYR109     -0.2866
    129  N          0.0360   -9.6450    4.9980 N.am  110  VAL110     -0.1977
    130  CA         0.0930   -8.2510    5.4900 C.3   110  VAL110      0.1596
    131  C         -0.3690   -8.2650    6.9290 C.2   110  VAL110      0.2287
    132  O         -1.5650   -8.4130    7.1970 O.2   110  VAL110     -0.2864
    133  CB        -0.7300   -7.2680    4.5670 C.3   110  VAL110      0.0276
    134  CG1       -0.4990   -5.8000    4.9540 C.3   110  VAL110      0.0022
    135  CG2       -0.3000   -7.4240    3.1210 C.3   110  VAL110      0.0022
    136  N         -6.7530   -4.7200    8.9500 N.3   114  GLU114     -0.1245
    137  CA        -7.4130   -3.8050    8.0080 C.3   114  GLU114      0.1567
    138  C         -7.4800   -2.3810    8.5850 C.2   114  GLU114      0.2260
    139  O         -7.7070   -2.2250    9.7820 O.2   114  GLU114     -0.2867
    140  CB        -8.8500   -4.2580    7.7420 C.3   114  GLU114      0.0388
    141  CG        -9.0140   -5.6940    7.2590 C.3   114  GLU114      0.1160
    142  CD       -10.1440   -6.3900    8.0150 C.2   114  GLU114      0.3649
    143  OE1      -11.2230   -6.6940    7.4310 O.co2 114  GLU114     -0.2457
    144  OE2       -9.9410   -6.5880    9.2270 O.co2 114  GLU114     -0.2457
    145  N        -13.9770   -0.3720   -5.5970 N.3   153  ASP153     -0.1239
    146  CA       -14.3590   -0.8470   -4.2580 C.3   153  ASP153      0.1674
    147  C        -13.5610   -0.2910   -3.1110 C.2   153  ASP153      0.2266
    148  O        -13.3480   -0.9660   -2.1250 O.2   153  ASP153     -0.2867
    149  CB       -14.3730   -2.3790   -4.1760 C.3   153  ASP153      0.1410
    150  CG       -15.3170   -2.9030   -3.0300 C.2   153  ASP153      0.3668
    151  OD1      -16.2730   -2.1890   -2.5910 O.co2 153  ASP153     -0.2456
    152  OD2      -15.0710   -4.0410   -2.5780 O.co2 153  ASP153     -0.2456
    153  N        -12.6590    1.3680    0.2570 N.3   155  LYS155     -0.1245
    154  CA       -13.2810    1.4340    1.5800 C.3   155  LYS155      0.1561
    155  C        -12.2210    0.8850    2.5730 C.2   155  LYS155      0.2260
    156  O        -11.2930    0.1560    2.1590 O.2   155  LYS155     -0.2867
    157  CB       -14.5760    0.5480    1.6490 C.3   155  LYS155      0.0271
    158  CG       -14.3120   -0.9500    1.3640 C.3   155  LYS155      0.0035
    159  CD       -15.6650   -1.7100    1.2920 C.3   155  LYS155      0.0206
    160  CE       -15.5360   -3.1850    0.9070 C.3   155  LYS155      0.1093
    161  NZ       -16.9170   -3.8970    0.8980 N.3   155  LYS155     -0.1314
    162  N        -12.3830   -1.3340    4.6840 N.3   157  GLU157     -0.1231
    163  CA       -12.3170   -2.7960    4.7960 C.3   157  GLU157      0.1699
    164  C        -11.2770   -3.3620    3.8220 C.2   157  GLU157      0.2592
    165  O        -10.8110   -4.5140    3.9820 O.2   157  GLU157     -0.2718
    166  CB       -13.6890   -3.4370    4.5630 C.3   157  GLU157      0.0402
    167  CG       -14.7590   -3.1220    5.6210 C.3   157  GLU157      0.1161
    168  CD       -15.6060   -1.9190    5.2640 C.2   157  GLU157      0.3649
    169  OE1      -15.0430   -0.8700    4.8970 O.co2 157  GLU157     -0.2457
    170  OE2      -16.8260   -2.0320    5.3680 O.co2 157  GLU157     -0.2457
    171  N        -10.9710   -2.6250    2.7490 N.am  158  ASN158     -0.1974
    172  CA       -10.0920   -3.1560    1.6720 C.3   158  ASN158      0.1688
    173  C         -8.6040   -2.6740    1.7310 C.2   158  ASN158      0.2292
    174  O         -7.7700   -3.0090    0.8570 O.2   158  ASN158     -0.2864
    175  CB       -10.6890   -2.8570    0.2910 C.3   158  ASN158      0.1181
    176  CG       -11.9220   -3.7440   -0.0290 C.2   158  ASN158      0.2629
    177  OD1      -12.3500   -4.5560    0.8030 O.2   158  ASN158     -0.2716
    178  ND2      -12.4720   -3.5860   -1.2290 N.am  158  ASN158     -0.0877
    179  N         -5.1940   -2.8910    3.6720 N.3   160  LEU160     -0.1245
    180  CA        -4.4490   -3.6230    4.6620 C.3   160  LEU160      0.1561
    181  C         -3.2830   -2.7900    5.1450 C.2   160  LEU160      0.2260
    182  O         -2.7000   -2.0460    4.3390 O.2   160  LEU160     -0.2867
    183  CB        -3.9650   -4.9770    4.1050 C.3   160  LEU160      0.0270
    184  CG        -5.0680   -5.9760    3.7690 C.3   160  LEU160      0.0019
    185  CD1       -4.4920   -7.1490    2.9670 C.3   160  LEU160      0.0001
    186  CD2       -5.7860   -6.4780    5.0200 C.3   160  LEU160      0.0001
    187  N         -6.2450   -4.4180   -1.1330 N.3   170  THR170     -0.1203
    188  CA        -6.6350   -5.8120   -1.3660 C.3   170  THR170      0.1994
    189  C         -7.9970   -5.8720   -2.0690 C.2   170  THR170      0.2617
    190  O         -8.6530   -4.8710   -2.1790 O.2   170  THR170     -0.2717
    191  CB        -6.6270   -6.6160    0.0080 C.3   170  THR170      0.1784
    192  OG1       -6.6300   -7.9970   -0.2760 O.3   170  THR170     -0.2211
    193  CG2       -7.8180   -6.2710    0.9670 C.3   170  THR170      0.0376
    194  N         -8.4010   -7.0520   -2.5450 N.am  171  ASP171     -0.1973
    195  CA        -9.7160   -7.3080   -3.1500 C.3   171  ASP171      0.1709
    196  C         -9.9350   -6.5410   -4.4360 C.2   171  ASP171      0.2293
    197  O        -10.4830   -5.4230   -4.3970 O.2   171  ASP171     -0.2864
    198  CB       -10.8630   -7.0470   -2.1530 C.3   171  ASP171      0.1436
    199  CG       -12.1850   -7.7000   -2.5770 C.2   171  ASP171      0.3671
    200  OD1      -12.3200   -8.1440   -3.7550 O.co2 171  ASP171     -0.2456
    201  OD2      -13.0980   -7.7910   -1.7300 O.co2 171  ASP171     -0.2456
    202  N         -6.1430   -9.1190   13.2690 N.3   313  PHE313     -0.1241
    203  CA        -7.2820   -9.6090   12.5150 C.3   313  PHE313      0.1605
    204  C         -8.2950  -10.2090   13.4790 C.2   313  PHE313      0.2264
    205  O         -7.9050  -10.5830   14.5600 O.2   313  PHE313     -0.2867
    206  CB        -6.7960  -10.6710   11.5210 C.3   313  PHE313      0.0534
    207  CG        -6.0370  -10.0870   10.3890 C.ar  313  PHE313     -0.0203
    208  CD1       -6.7080   -9.3660    9.3920 C.ar  313  PHE313     -0.0042
    209  CD2       -4.6320  -10.1260   10.3750 C.ar  313  PHE313     -0.0042
    210  CE1       -6.0120   -8.7470    8.3750 C.ar  313  PHE313     -0.0003
    211  CE2       -3.9120   -9.5120    9.3430 C.ar  313  PHE313     -0.0003
    212  CZ        -4.5950   -8.8270    8.3340 C.ar  313  PHE313     -0.0000
@<TRIPOS>BOND
     1    91    90    1
     2    38    40   ar
     3    38    36   ar
     4   145   146    1
     5    40    39   ar
     6    88    87    2
     7    89    90    1
     8    89    86    1
     9    36    35   ar
    10    96    95    2
    11    90    92    1
    12    39    37   ar
    13   196   197    2
    14   196   195    1
    15    87    86    1
    16   146   149    1
    17   146   147    1
    18    35    37   ar
    19    35    34    1
    20   149   150    1
    21    86    85    1
    22   200   199   ar
    23    95    94    1
    24    34    31    1
    25    76    75    1
    26    85    79   am
    27    99    97    1
    28    75    74    1
    29   195   194    1
    30   195   198    1
    31   147   148    2
    32   105   106    1
    33   105   104    1
    34   150   151   ar
    35   150   152   ar
    36    93    94    1
    37    74    73    1
    38   106   107    1
    39    94    97    1
    40   199   198    1
    41   199   201   ar
    42   194   189   am
    43    71    70    2
    44    33    32    2
    45   190   189    2
    46    73    72    1
    47    97    98    1
    48   189   188    1
    49    31    32    1
    50    31    30    1
    51    79    78    1
    52    79    80    2
    53   100   101    1
    54   101   104    1
    55   101   102    1
    56    72    69    1
    57    28    29    1
    58    28    25    1
    59    32    41    1
    60    78    77    1
    61    78    81    1
    62    70    77   am
    63    70    69    1
    64    30    26   am
    65   188   187    1
    66   188   191    1
    67   178   176   am
    68    83    81    1
    69    69    68    1
    70   108   102   am
    71   108   109    1
    72    26    25    1
    73    26    27    2
    74   102   103    2
    75    81    82    1
    76    25    24    1
    77    41    42    2
    78   192   191    1
    79   115   114   ar
    80   176   175    1
    81   176   177    2
    82   112   109    1
    83   112   113    1
    84   191   193    1
    85    82    84    1
    86    42    43    1
    87    24    22   am
    88   153   154    1
    89   175   172    1
    90   109   110    1
    91    66    65    2
    92   114   113    1
    93   114   116   ar
    94   174   173    2
    95   161   160    1
    96   160   159    1
    97    22    23    2
    98    22    21    1
    99   159   158    1
   100   158   157    1
   101    43    45   am
   102    43    44    2
   103   111   110    2
   104    48    47    2
   105    65    64    1
   106   110   117   am
   107   154   157    1
   108   154   155    1
   109   172   173    1
   110   172   171    1
   111    45    46    1
   112    62    60    1
   113    21    20    1
   114   156   155    2
   115    47    46    1
   116    47    56   am
   117    63    64    1
   118   117   118    1
   119   171   164   am
   120    64    67    1
   121    20    15   am
   122    46    49    1
   123   185   184    1
   124    61    60    1
   125    60    57    1
   126   135   133    1
   127    57    56    1
   128    57    58    1
   129   179   180    1
   130    50    49    1
   131    50    51    1
   132   184   183    1
   133   184   186    1
   134   164   165    2
   135   164   163    1
   136    15    16    2
   137    15    14    1
   138   118   119    1
   139   118   121    1
   140   183   180    1
   141   182   181    2
   142    58    59    2
   143   166   163    1
   144   166   167    1
   145   133   134    1
   146   133   130    1
   147   119   120    2
   148   119   129   am
   149   180   181    1
   150   162   163    1
   151    51    52    1
   152    14    13    1
   153    14    17    1
   154   169   168   ar
   155   121   122    1
   156   129   130    1
   157    52    53    2
   158   168   170   ar
   159   168   167    1
   160    12    11    2
   161   130   131    1
   162    13    11   am
   163    17    18    1
   164    17    19    1
   165    11    10    1
   166    53    55    1
   167    53    54    1
   168   122   123   ar
   169   122   124   ar
   170   123   125   ar
   171    10     9    1
   172   131   132    2
   173     7     6    1
   174   141   140    1
   175   141   142    1
   176     9     3   am
   177   143   142   ar
   178   124   126   ar
   179   125   127   ar
   180     5     6    1
   181     5     2    1
   182   140   137    1
   183     6     8    1
   184     3     4    2
   185     3     2    1
   186   137   138    1
   187   137   136    1
   188   142   144   ar
   189     1     2    1
   190   212   210   ar
   191   212   211   ar
   192   210   208   ar
   193   138   139    2
   194   126   127   ar
   195   127   128    1
   196   211   209   ar
   197   208   207   ar
   198   209   207   ar
   199   207   206    1
   200   206   203    1
   201   203   202    1
   202   203   204    1
   203   204   205    2
