@<TRIPOS>MOLECULE
tmp/2gufA08.pdb
 129 126 0 0 0
SMALL
GASTEIGER

@<TRIPOS>ATOM
      1  N         11.0100   27.9280   26.0570 N.3   265  TRP265     -0.1241
      2  CA        10.7420   28.4360   27.4080 C.3   265  TRP265      0.1605
      3  C          9.5740   27.6810   27.9010 C.2   265  TRP265      0.2264
      4  O          8.5290   27.6760   27.2170 O.2   265  TRP265     -0.2867
      5  CB        10.4310   29.9440   27.3580 C.3   265  TRP265      0.0550
      6  CG        10.2540   30.5270   28.6830 C.ar  265  TRP265      0.0003
      7  CD1       10.9200   30.1760   29.8500 C.ar  265  TRP265      0.0946
      8  CD2        9.3410   31.5610   29.0380 C.ar  265  TRP265      0.0152
      9  NE1       10.4900   30.9470   30.8850 N.ar  265  TRP265     -0.2442
     10  CE2        9.5020   31.7960   30.4310 C.ar  265  TRP265      0.0810
     11  CE3        8.4190   32.3350   28.3180 C.ar  265  TRP265      0.0012
     12  CZ2        8.7650   32.7990   31.1260 C.ar  265  TRP265      0.0191
     13  CZ3        7.6480   33.3280   29.0330 C.ar  265  TRP265      0.0001
     14  CH2        7.8330   33.5350   30.4100 C.ar  265  TRP265      0.0015
     15  N          7.1540   26.4980   31.3850 N.3   267  ASN267     -0.1240
     16  CA         6.7850   26.8330   32.7640 C.3   267  ASN267      0.1653
     17  C          5.8220   25.8530   33.3030 C.2   267  ASN267      0.2266
     18  O          4.9660   25.3650   32.5780 O.2   267  ASN267     -0.2867
     19  CB         6.0720   28.1850   32.8210 C.3   267  ASN267      0.1155
     20  CG         6.9050   29.2490   32.2810 C.2   267  ASN267      0.2627
     21  OD1        7.8110   29.7070   32.9560 O.2   267  ASN267     -0.2716
     22  ND2        6.6980   29.5830   31.0070 N.am  267  ASN267     -0.0877
     23  N          2.8140   25.8370   30.7130 N.3   278  ALA278     -0.1231
     24  CA         2.7180   26.3550   29.3490 C.3   278  ALA278      0.1694
     25  C          4.0900   26.6560   28.8690 C.2   278  ALA278      0.2593
     26  O          5.0130   26.7960   29.6640 O.2   278  ALA278     -0.2718
     27  CB         1.8730   27.6230   29.2840 C.3   278  ALA278      0.0304
     28  N          4.2530   26.8040   27.5640 N.am  279  GLY279     -0.1942
     29  CA         5.6310   26.9730   27.0690 C.3   279  GLY279      0.2014
     30  C          5.5120   27.5200   25.6640 C.2   279  GLY279      0.2638
     31  O          4.4160   27.4580   25.0510 O.2   279  GLY279     -0.2714
     32  N          6.5900   28.1300   25.1970 N.am  280  VAL280     -0.1977
     33  CA         6.6270   28.5960   23.8140 C.3   280  VAL280      0.1596
     34  C          8.0040   28.2000   23.3390 C.2   280  VAL280      0.2287
     35  O          8.8950   28.1410   24.1590 O.2   280  VAL280     -0.2864
     36  CB         6.3420   30.1660   23.7440 C.3   280  VAL280      0.0276
     37  CG1        7.2860   30.9460   24.6420 C.3   280  VAL280      0.0022
     38  CG2        6.4370   30.7090   22.2830 C.3   280  VAL280      0.0022
     39  N          3.2990   27.0870   20.7520 N.3   305  ILE305     -0.1231
     40  CA         2.8920   27.4480   22.0940 C.3   305  ILE305      0.1692
     41  C          1.9940   26.3420   22.6010 C.2   305  ILE305      0.2592
     42  O          1.2100   25.8350   21.8480 O.2   305  ILE305     -0.2718
     43  CB         2.1180   28.7800   22.1460 C.3   305  ILE305      0.0266
     44  CG1        1.8850   29.1340   23.6240 C.3   305  ILE305      0.0019
     45  CG2        0.7290   28.7200   21.2500 C.3   305  ILE305      0.0020
     46  CD1        1.5070   30.5680   23.8670 C.3   305  ILE305      0.0001
     47  N          2.0830   25.9840   23.8890 N.am  306  TYR306     -0.1962
     48  CA         1.3870   24.8140   24.3640 C.3   306  TYR306      0.1771
     49  C          0.9630   25.0470   25.8090 C.2   306  TYR306      0.2619
     50  O          1.5570   25.8450   26.5140 O.2   306  TYR306     -0.2715
     51  CB         2.1740   23.4950   24.1770 C.3   306  TYR306      0.0574
     52  CG         3.3490   23.4410   25.0800 C.ar  306  TYR306     -0.0198
     53  CD1        3.2160   22.9310   26.3580 C.ar  306  TYR306     -0.0009
     54  CD2        4.5490   24.0070   24.7060 C.ar  306  TYR306     -0.0009
     55  CE1        4.2210   22.9500   27.2450 C.ar  306  TYR306      0.0417
     56  CE2        5.6060   24.0500   25.6080 C.ar  306  TYR306      0.0417
     57  CZ         5.4250   23.4950   26.8450 C.ar  306  TYR306      0.1957
     58  OH         6.4050   23.5330   27.7850 O.3   306  TYR306     -0.2866
     59  N         -0.0620   24.3000   26.1990 N.am  307  LEU307     -0.1977
     60  CA        -0.6300   24.3190   27.5060 C.3   307  LEU307      0.1596
     61  C         -0.6660   22.8430   28.0130 C.2   307  LEU307      0.2287
     62  O         -0.8670   21.9100   27.2180 O.2   307  LEU307     -0.2864
     63  CB        -2.0630   24.8400   27.3250 C.3   307  LEU307      0.0297
     64  CG        -2.8630   25.0740   28.5930 C.3   307  LEU307      0.0022
     65  CD1       -2.1580   26.0400   29.5700 C.3   307  LEU307      0.0001
     66  CD2       -4.2540   25.6080   28.1160 C.3   307  LEU307      0.0001
     67  N         -2.4120   20.9200   24.9930 N.3   322  ALA322     -0.1231
     68  CA        -2.8180   21.4230   23.6790 C.3   322  ALA322      0.1694
     69  C         -1.6950   22.2860   23.1940 C.2   322  ALA322      0.2592
     70  O         -1.1250   23.0280   23.9780 O.2   322  ALA322     -0.2718
     71  CB        -4.0670   22.2690   23.8070 C.3   322  ALA322      0.0304
     72  N         -1.4390   22.2800   21.8970 N.am  323  ARG323     -0.1966
     73  CA        -0.3890   23.0730   21.3080 C.3   323  ARG323      0.1729
     74  C         -0.8500   23.6380   19.9700 C.2   323  ARG323      0.2616
     75  O         -1.6880   23.0580   19.2980 O.2   323  ARG323     -0.2715
     76  CB         0.8120   22.1620   21.0670 C.3   323  ARG323      0.0348
     77  CG         1.9610   22.8520   20.4990 C.3   323  ARG323      0.0492
     78  CD         3.2240   22.0120   20.6480 C.3   323  ARG323      0.2205
     79  NE         4.2400   22.5680   19.7620 N.pl3 323  ARG323     -0.0865
     80  CZ         5.4010   23.0470   20.1580 C.cat 323  ARG323      0.5346
     81  NH1        5.7380   23.0110   21.4630 N.pl3 323  ARG323      0.1354
     82  NH2        6.2090   23.6020   19.2600 N.pl3 323  ARG323      0.1354
     83  N         -0.3290   24.8050   19.6000 N.am  324  SER324     -0.1950
     84  CA        -0.5900   25.3080   18.2600 C.3   324  SER324      0.1924
     85  C          0.7530   25.6460   17.7030 C.2   324  SER324      0.2314
     86  O          1.6400   26.1790   18.4280 O.2   324  SER324     -0.2863
     87  CB        -1.5860   26.4550   18.2220 C.3   324  SER324      0.2116
     88  OG        -1.9310   26.6910   16.8640 O.3   324  SER324     -0.2180
     89  N         -2.9620   22.8390   15.0620 N.3   334  GLY334     -0.1210
     90  CA        -3.1190   22.6430   16.5010 C.3   334  GLY334      0.1956
     91  C         -3.2610   21.1650   16.7890 C.2   334  GLY334      0.2613
     92  O         -3.6900   20.4060   15.9160 O.2   334  GLY334     -0.2717
     93  N         -2.9510   20.7410   18.0200 N.am  335  THR335     -0.1938
     94  CA        -3.0720   19.3540   18.3720 C.3   335  THR335      0.2028
     95  C         -3.4400   19.4350   19.8360 C.2   335  THR335      0.2642
     96  O         -3.2070   20.4610   20.5160 O.2   335  THR335     -0.2714
     97  CB        -1.7140   18.5790   18.2820 C.3   335  THR335      0.1808
     98  OG1       -0.7060   19.3710   18.8580 O.3   335  THR335     -0.2208
     99  CG2       -1.3260   18.3600   16.8670 C.3   335  THR335      0.0379
    100  N         -4.0280   18.3670   20.3400 N.am  336  TRP336     -0.1973
    101  CA        -4.4420   18.3190   21.7270 C.3   336  TRP336      0.1640
    102  C         -4.6330   16.8500   22.1250 C.2   336  TRP336      0.2290
    103  O         -4.7010   15.9890   21.2570 O.2   336  TRP336     -0.2864
    104  CB        -5.7180   19.1100   21.9670 C.3   336  TRP336      0.0576
    105  CG        -6.9470   18.5060   21.3450 C.ar  336  TRP336      0.0006
    106  CD1       -7.3040   18.5150   20.0190 C.ar  336  TRP336      0.0946
    107  CD2       -7.9640   17.7770   22.0280 C.ar  336  TRP336      0.0152
    108  NE1       -8.5160   17.8700   19.8480 N.ar  336  TRP336     -0.2442
    109  CE2       -8.9230   17.3910   21.0680 C.ar  336  TRP336      0.0810
    110  CE3       -8.1610   17.4140   23.3640 C.ar  336  TRP336      0.0012
    111  CZ2      -10.0670   16.6600   21.4080 C.ar  336  TRP336      0.0191
    112  CZ3       -9.3250   16.6760   23.6980 C.ar  336  TRP336      0.0001
    113  CH2      -10.2420   16.3190   22.7210 C.ar  336  TRP336      0.0015
    114  N         -4.6010   14.1570   19.1660 N.3   356  THR356     -0.1218
    115  CA        -4.2340   14.3590   17.7710 C.3   356  THR356      0.1862
    116  C         -2.7870   14.7450   17.7460 C.2   356  THR356      0.2287
    117  O         -2.2590   15.2480   18.7390 O.2   356  THR356     -0.2866
    118  CB        -5.1380   15.4560   17.1600 C.3   356  THR356      0.1770
    119  OG1       -4.9450   16.6510   17.8900 O.3   356  THR356     -0.2211
    120  CG2       -6.5770   15.1060   17.4010 C.3   356  THR356      0.0375
    121  N         -5.2270   10.8380   14.5800 N.3   381  LYS381     -0.1245
    122  CA        -6.1930   10.8250   15.6760 C.3   381  LYS381      0.1561
    123  C         -5.9670    9.4610   16.3520 C.2   381  LYS381      0.2260
    124  O         -5.9820    8.4450   15.6650 O.2   381  LYS381     -0.2867
    125  CB        -7.6540   10.8920   15.1630 C.3   381  LYS381      0.0271
    126  CG        -8.0990   12.2610   14.6140 C.3   381  LYS381      0.0035
    127  CD        -9.5760   12.2340   14.2280 C.3   381  LYS381      0.0206
    128  CE       -10.0450   13.6760   13.9060 C.3   381  LYS381      0.1093
    129  NZ       -10.4710   14.4310   15.1870 N.3   381  LYS381     -0.1314
@<TRIPOS>BOND
     1   128   127    1
     2   128   129    1
     3   127   126    1
     4   121   122    1
     5   126   125    1
     6    89    90    1
     7   125   122    1
     8   124   123    2
     9   122   123    1
    10    92    91    2
    11    90    91    1
    12    91    93   am
    13    88    87    1
    14    99    97    1
    15   118   120    1
    16   118   115    1
    17   118   119    1
    18    85    84    1
    19    85    86    2
    20   116   115    1
    21   116   117    2
    22   115   114    1
    23    93    94    1
    24    87    84    1
    25    84    83    1
    26    97    94    1
    27    97    98    1
    28    94    95    1
    29    82    80    1
    30    75    74    2
    31    83    74   am
    32    79    80    2
    33    79    78    1
    34    95   100   am
    35    95    96    2
    36   108   106   ar
    37   108   109   ar
    38    74    73    1
    39   106   105   ar
    40    80    81    1
    41   100   101    1
    42    77    78    1
    43    77    76    1
    44    39    40    1
    45    76    73    1
    46   109   111   ar
    47   109   107   ar
    48    45    43    1
    49   103   102    2
    50    73    72    1
    51   105   104    1
    52   105   107   ar
    53   111   113   ar
    54   101   104    1
    55   101   102    1
    56    42    41    2
    57    72    69   am
    58   107   110   ar
    59    40    43    1
    60    40    41    1
    61    43    44    1
    62    38    36    1
    63    41    47   am
    64   113   112   ar
    65    69    68    1
    66    69    70    2
    67    34    33    1
    68    34    35    2
    69   110   112   ar
    70    44    46    1
    71    68    71    1
    72    68    67    1
    73    36    33    1
    74    36    37    1
    75    33    32    1
    76    47    48    1
    77    51    48    1
    78    51    52    1
    79    48    49    1
    80    54    52   ar
    81    54    56   ar
    82    31    30    2
    83    52    53   ar
    84    32    30   am
    85    56    57   ar
    86    30    29    1
    87    49    59   am
    88    49    50    2
    89     1     2    1
    90    59    60    1
    91    53    55   ar
    92    57    55   ar
    93    57    58    1
    94    29    28    1
    95     4     3    2
    96    62    61    2
    97    63    60    1
    98    63    64    1
    99     5     2    1
   100     5     6    1
   101     2     3    1
   102    60    61    1
   103    28    25   am
   104    66    64    1
   105    11    13   ar
   106    11     8   ar
   107    64    65    1
   108     6     8   ar
   109     6     7   ar
   110    25    24    1
   111    25    26    2
   112    13    14   ar
   113     8    10   ar
   114    27    24    1
   115    24    23    1
   116     7     9   ar
   117    14    12   ar
   118    10     9   ar
   119    10    12   ar
   120    22    20   am
   121    15    16    1
   122    20    19    1
   123    20    21    2
   124    18    17    2
   125    16    19    1
   126    16    17    1
