@<TRIPOS>MOLECULE
tmp/2gufA10.pdb
 124 122 0 0 0
SMALL
GASTEIGER

@<TRIPOS>ATOM
      1  N         25.5700   24.3530   30.7090 N.3   194  VAL194     -0.1245
      2  CA        26.0800   24.3900   29.3350 C.3   194  VAL194      0.1561
      3  C         26.5950   23.0030   29.0300 C.2   194  VAL194      0.2260
      4  O         27.2910   22.4190   29.8500 O.2   194  VAL194     -0.2867
      5  CB        27.2130   25.4080   29.1640 C.3   194  VAL194      0.0252
      6  CG1       27.9940   25.1410   27.8740 C.3   194  VAL194      0.0019
      7  CG2       26.6260   26.7950   29.0950 C.3   194  VAL194      0.0019
      8  N         28.0380   18.3250   15.8950 N.3   213  GLN213     -0.1245
      9  CA        28.1900   18.9910   17.1800 C.3   213  GLN213      0.1566
     10  C         26.8810   19.5440   17.6260 C.2   213  GLN213      0.2260
     11  O         26.0340   19.9090   16.8200 O.2   213  GLN213     -0.2867
     12  CB        29.1730   20.1460   17.0930 C.3   213  GLN213      0.0367
     13  CG        30.5880   19.7290   16.8430 C.3   213  GLN213      0.0905
     14  CD        31.5590   20.3020   17.9030 C.2   213  GLN213      0.2608
     15  OE1       31.7350   21.5410   17.9960 O.2   213  GLN213     -0.2717
     16  NE2       32.1810   19.4020   18.7230 N.am  213  GLN213     -0.0878
     17  N         25.3410   21.9900   20.9110 N.3   215  TRP215     -0.1227
     18  CA        25.5790   22.8040   22.1180 C.3   215  TRP215      0.1737
     19  C         24.2470   23.2200   22.7610 C.2   215  TRP215      0.2595
     20  O         23.3030   23.5930   22.0580 O.2   215  TRP215     -0.2718
     21  CB        26.3600   24.0510   21.7430 C.3   215  TRP215      0.0564
     22  CG        27.6560   23.7310   21.2250 C.ar  215  TRP215      0.0003
     23  CD1       27.9940   23.5000   19.9150 C.ar  215  TRP215      0.0946
     24  CD2       28.8590   23.5670   21.9910 C.ar  215  TRP215      0.0152
     25  NE1       29.3420   23.2190   19.8220 N.ar  215  TRP215     -0.2442
     26  CE2       29.8940   23.2440   21.0790 C.ar  215  TRP215      0.0810
     27  CE3       29.1560   23.6530   23.3580 C.ar  215  TRP215      0.0012
     28  CZ2       31.2190   23.0210   21.4900 C.ar  215  TRP215      0.0191
     29  CZ3       30.4800   23.4370   23.7810 C.ar  215  TRP215      0.0001
     30  CH2       31.4950   23.1180   22.8440 C.ar  215  TRP215      0.0015
     31  N         24.1490   23.1610   24.0720 N.am  216  ASP216     -0.1960
     32  CA        22.8770   23.4970   24.7210 C.3   216  ASP216      0.1840
     33  C         23.2640   24.3220   25.9140 C.2   216  ASP216      0.2621
     34  O         24.3420   24.0990   26.5090 O.2   216  ASP216     -0.2715
     35  CB        22.1880   22.2520   25.2540 C.3   216  ASP216      0.1450
     36  CG        21.4010   21.4640   24.1880 C.2   216  ASP216      0.3671
     37  OD1       22.0200   20.8830   23.2510 O.co2 216  ASP216     -0.2456
     38  OD2       20.1340   21.3980   24.3120 O.co2 216  ASP216     -0.2456
     39  N         22.4220   25.2910   26.2540 N.am  217  ALA217     -0.1977
     40  CA        22.6490   26.1380   27.4250 C.3   217  ALA217      0.1597
     41  C         21.3030   26.3510   28.0060 C.2   217  ALA217      0.2287
     42  O         20.3060   26.4640   27.2720 O.2   217  ALA217     -0.2864
     43  CB        23.2530   27.4450   27.0100 C.3   217  ALA217      0.0319
     44  N         18.4800   27.0550   25.2640 N.3   232  THR232     -0.1203
     45  CA        18.8040   27.3770   23.8930 C.3   232  THR232      0.1994
     46  C         19.7370   26.2770   23.3920 C.2   232  THR232      0.2619
     47  O         20.5620   25.8180   24.1380 O.2   232  THR232     -0.2717
     48  CB        19.4910   28.7550   23.7510 C.3   232  THR232      0.1784
     49  OG1       20.6690   28.7440   24.5460 O.3   232  THR232     -0.2211
     50  CG2       18.6340   29.9360   24.3000 C.3   232  THR232      0.0376
     51  N         19.5810   25.8500   22.1400 N.am  233  SER233     -0.1937
     52  CA        20.4300   24.8110   21.5590 C.3   233  SER233      0.2055
     53  C         20.8350   25.1010   20.1840 C.2   233  SER233      0.2643
     54  O         20.1100   25.7060   19.4270 O.2   233  SER233     -0.2714
     55  CB        19.6780   23.4920   21.4410 C.3   233  SER233      0.2130
     56  OG        19.0420   23.2580   22.6830 O.3   233  SER233     -0.2179
     57  N         21.9670   24.5350   19.8140 N.am  234  TYR234     -0.1973
     58  CA        22.4290   24.6730   18.4520 C.3   234  TYR234      0.1639
     59  C         23.1270   23.4000   18.1290 C.2   234  TYR234      0.2290
     60  O         23.9700   22.9460   18.9010 O.2   234  TYR234     -0.2864
     61  CB        23.3840   25.8470   18.3290 C.3   234  TYR234      0.0560
     62  CG        24.1680   25.8940   17.0120 C.ar  234  TYR234     -0.0198
     63  CD1       23.5260   26.1260   15.8000 C.ar  234  TYR234     -0.0009
     64  CD2       25.5150   25.6780   17.0000 C.ar  234  TYR234     -0.0009
     65  CE1       24.2550   26.1420   14.5980 C.ar  234  TYR234      0.0417
     66  CE2       26.2630   25.6980   15.8040 C.ar  234  TYR234      0.0417
     67  CZ        25.6070   25.9550   14.6250 C.ar  234  TYR234      0.1957
     68  OH        26.3330   25.9700   13.4720 O.3   234  TYR234     -0.2866
     69  N         18.5320   25.3410   15.2950 N.3   261  TYR261     -0.1227
     70  CA        18.6070   26.2660   16.3910 C.3   261  TYR261      0.1736
     71  C         17.3160   26.0750   17.1430 C.2   261  TYR261      0.2596
     72  O         16.2760   25.9590   16.5170 O.2   261  TYR261     -0.2718
     73  CB        18.6560   27.6900   15.8340 C.3   261  TYR261      0.0548
     74  CG        19.7430   27.9600   14.8380 C.ar  261  TYR261     -0.0200
     75  CD1       19.5460   27.6590   13.4890 C.ar  261  TYR261     -0.0009
     76  CD2       20.9510   28.5210   15.2350 C.ar  261  TYR261     -0.0009
     77  CE1       20.5020   27.9050   12.5560 C.ar  261  TYR261      0.0417
     78  CE2       21.9720   28.7850   14.2620 C.ar  261  TYR261      0.0417
     79  CZ        21.6970   28.4780   12.9310 C.ar  261  TYR261      0.1957
     80  OH        22.5990   28.6600   11.9040 O.3   261  TYR261     -0.2866
     81  N         17.3510   26.0960   18.4630 N.am  262  THR262     -0.1939
     82  CA        16.1170   26.0280   19.2640 C.3   262  THR262      0.2028
     83  C         16.1260   27.0480   20.3720 C.2   262  THR262      0.2642
     84  O         17.1410   27.2280   20.9890 O.2   262  THR262     -0.2714
     85  CB        15.9710   24.6410   19.9250 C.3   262  THR262      0.1808
     86  OG1       16.0270   23.6460   18.9000 O.3   262  THR262     -0.2208
     87  CG2       14.6110   24.4850   20.5670 C.3   262  THR262      0.0379
     88  N         14.9850   27.7050   20.6330 N.am  263  VAL263     -0.1977
     89  CA        14.8450   28.4830   21.8660 C.3   263  VAL263      0.1596
     90  C         13.5910   28.0380   22.4870 C.2   263  VAL263      0.2287
     91  O         12.5430   28.0630   21.8120 O.2   263  VAL263     -0.2864
     92  CB        14.8490   30.0180   21.6260 C.3   263  VAL263      0.0276
     93  CG1       14.7370   30.7450   22.9720 C.3   263  VAL263      0.0022
     94  CG2       16.1740   30.4100   20.9730 C.3   263  VAL263      0.0022
     95  N         10.7250   28.1170   19.6270 N.3   282  TRP282     -0.1241
     96  CA        10.9710   28.4780   18.2540 C.3   282  TRP282      0.1605
     97  C         12.1230   27.5570   17.8510 C.2   282  TRP282      0.2264
     98  O         13.0240   27.2720   18.6250 O.2   282  TRP282     -0.2867
     99  CB        11.5060   29.9320   18.1760 C.3   282  TRP282      0.0550
    100  CG        12.0750   30.2800   16.8110 C.ar  282  TRP282      0.0003
    101  CD1       11.3540   30.6590   15.7020 C.ar  282  TRP282      0.0946
    102  CD2       13.4480   30.2550   16.4140 C.ar  282  TRP282      0.0152
    103  NE1       12.2040   30.8290   14.6420 N.ar  282  TRP282     -0.2442
    104  CE2       13.4960   30.6430   15.0680 C.ar  282  TRP282      0.0810
    105  CE3       14.6590   29.9400   17.0810 C.ar  282  TRP282      0.0012
    106  CZ2       14.6920   30.7230   14.3520 C.ar  282  TRP282      0.0191
    107  CZ3       15.8750   30.0260   16.3520 C.ar  282  TRP282      0.0001
    108  CH2       15.8690   30.4210   15.0100 C.ar  282  TRP282      0.0015
    109  N         14.4560   26.1990   14.2820 N.3   284  LYS284     -0.1245
    110  CA        14.7200   26.3150   12.8680 C.3   284  LYS284      0.1561
    111  C         15.7170   25.2490   12.4650 C.2   284  LYS284      0.2260
    112  O         16.6700   24.9990   13.1770 O.2   284  LYS284     -0.2867
    113  CB        15.2890   27.6930   12.6070 C.3   284  LYS284      0.0271
    114  CG        16.2400   27.8000   11.4120 C.3   284  LYS284      0.0035
    115  CD        16.5800   29.2750   11.2740 C.3   284  LYS284      0.0206
    116  CE        17.0320   29.6330    9.8430 C.3   284  LYS284      0.1093
    117  NZ        17.9460   30.8450    9.9620 N.3   284  LYS284     -0.1314
    118  N         18.1200   24.0330    9.0530 N.3   286  THR286     -0.1218
    119  CA        18.5140   24.4500    7.7240 C.3   286  THR286      0.1862
    120  C         19.3410   23.3540    7.1630 C.2   286  THR286      0.2287
    121  O         19.9410   22.6110    7.9180 O.2   286  THR286     -0.2866
    122  CB        19.3610   25.7190    7.7380 C.3   286  THR286      0.1770
    123  OG1       20.6310   25.4100    8.3200 O.3   286  THR286     -0.2211
    124  CG2       18.7190   26.7900    8.6120 C.3   286  THR286      0.0375
@<TRIPOS>BOND
     1   120   119    1
     2   120   121    2
     3   119   122    1
     4   119   118    1
     5   122   123    1
     6   122   124    1
     7   116   117    1
     8   116   115    1
     9   115   114    1
    10   114   113    1
    11    80    79    1
    12   111   110    1
    13   111   112    2
    14    77    79   ar
    15    77    75   ar
    16   113   110    1
    17   110   109    1
    18    79    78   ar
    19    68    67    1
    20    75    74   ar
    21    78    76   ar
    22   106   108   ar
    23   106   104   ar
    24    65    67   ar
    25    65    63   ar
    26    67    66   ar
    27   103   104   ar
    28   103   101   ar
    29    74    76   ar
    30    74    73    1
    31   108   107   ar
    32   104   102   ar
    33    69    70    1
    34   101   100   ar
    35    63    62   ar
    36    66    64   ar
    37    73    70    1
    38     8     9    1
    39   107   105   ar
    40    70    71    1
    41   102   100   ar
    42   102   105   ar
    43    72    71    2
    44   100    99    1
    45    11    10    2
    46    13    12    1
    47    13    14    1
    48    64    62   ar
    49    62    61    1
    50    12     9    1
    51    71    81   am
    52     9    10    1
    53    97    96    1
    54    97    98    2
    55    14    15    2
    56    14    16   am
    57    59    58    1
    58    59    60    2
    59    99    96    1
    60    96    95    1
    61    61    58    1
    62    58    57    1
    63    81    82    1
    64    86    85    1
    65    82    85    1
    66    82    83    1
    67    54    53    2
    68    57    53   am
    69    25    23   ar
    70    25    26   ar
    71    23    22   ar
    72    85    87    1
    73    53    52    1
    74    83    88   am
    75    83    84    2
    76    88    89    1
    77    17    18    1
    78    94    92    1
    79    26    28   ar
    80    26    24   ar
    81    22    21    1
    82    22    24   ar
    83    55    52    1
    84    55    56    1
    85    28    30   ar
    86    52    51    1
    87    92    89    1
    88    92    93    1
    89    21    18    1
    90    91    90    2
    91    89    90    1
    92    24    27   ar
    93    20    19    2
    94    18    19    1
    95    51    46   am
    96    19    31   am
    97    30    29   ar
    98    37    36   ar
    99    27    29   ar
   100    46    45    1
   101    46    47    2
   102    48    45    1
   103    48    50    1
   104    48    49    1
   105    45    44    1
   106    31    32    1
   107    36    38   ar
   108    36    35    1
   109    32    35    1
   110    32    33    1
   111    33    39   am
   112    33    34    2
   113    39    40    1
   114    43    40    1
   115    42    41    2
   116    40    41    1
   117     6     5    1
   118     3     2    1
   119     3     4    2
   120     7     5    1
   121     5     2    1
   122     2     1    1
