@<TRIPOS>MOLECULE
tmp/2gufA13.pdb
 119 114 0 0 0
SMALL
GASTEIGER

@<TRIPOS>ATOM
      1  N         33.1600   20.7790   41.2740 N.3   154  LEU154     -0.1231
      2  CA        34.0810   21.8910   41.3110 C.3   154  LEU154      0.1693
      3  C         33.5150   22.9180   42.2850 C.2   154  LEU154      0.2593
      4  O         33.1450   24.0260   41.8950 O.2   154  LEU154     -0.2718
      5  CB        34.1830   22.5190   39.9260 C.3   154  LEU154      0.0284
      6  CG        35.1280   21.9910   38.8360 C.3   154  LEU154      0.0019
      7  CD1       35.4450   20.4840   38.9390 C.3   154  LEU154      0.0001
      8  CD2       34.6280   22.3810   37.4480 C.3   154  LEU154      0.0001
      9  N         33.4420   22.5380   43.5510 N.am  155  GLY155     -0.1942
     10  CA        32.7940   23.3440   44.5590 C.3   155  GLY155      0.2014
     11  C         31.3710   22.8680   44.7350 C.2   155  GLY155      0.2639
     12  O         30.8410   22.1140   43.8940 O.2   155  GLY155     -0.2714
     13  N         30.7390   23.3260   45.8060 N.am  156  ASP156     -0.1957
     14  CA        29.4030   22.8720   46.1550 C.3   156  ASP156      0.1840
     15  C         28.4130   23.1440   45.0540 C.2   156  ASP156      0.2622
     16  O         27.4690   22.3760   44.8620 O.2   156  ASP156     -0.2715
     17  CB        28.9160   23.5780   47.4250 C.3   156  ASP156      0.1450
     18  CG        29.7010   23.1730   48.6510 C.2   156  ASP156      0.3671
     19  OD1       29.4210   22.0650   49.1880 O.co2 156  ASP156     -0.2456
     20  OD2       30.5880   23.9700   49.0730 O.co2 156  ASP156     -0.2456
     21  N         28.6080   24.2340   44.3270 N.am  157  LYS157     -0.1963
     22  CA        27.5980   24.6480   43.3460 C.3   157  LYS157      0.1728
     23  C         27.7710   24.0730   41.9220 C.2   157  LYS157      0.2616
     24  O         26.8130   24.0340   41.1660 O.2   157  LYS157     -0.2715
     25  CB        27.5080   26.1790   43.2940 C.3   157  LYS157      0.0311
     26  CG        27.4650   26.8800   44.6720 C.3   157  LYS157      0.0038
     27  CD        27.1560   28.4040   44.6040 C.3   157  LYS157      0.0206
     28  CE        27.7800   29.1340   43.3930 C.3   157  LYS157      0.1093
     29  NZ        29.2860   29.0920   43.2310 N.3   157  LYS157     -0.1314
     30  N         28.9700   23.6190   41.5740 N.am  158  THR158     -0.1951
     31  CA        29.3420   23.3250   40.1820 C.3   158  THR158      0.1897
     32  C         29.8040   21.8760   39.9330 C.2   158  THR158      0.2313
     33  O         30.6670   21.3560   40.6480 O.2   158  THR158     -0.2863
     34  CB        30.4630   24.2640   39.7020 C.3   158  THR158      0.1794
     35  OG1       30.0740   25.6270   39.9140 O.3   158  THR158     -0.2208
     36  CG2       30.7280   24.0590   38.2350 C.3   158  THR158      0.0378
     37  N         28.5350   21.3870   31.9940 N.3   182  LEU182     -0.1245
     38  CA        28.7050   22.1840   33.2060 C.3   182  LEU182      0.1561
     39  C         27.3390   22.3480   33.8240 C.2   182  LEU182      0.2260
     40  O         26.4260   22.7910   33.1300 O.2   182  LEU182     -0.2867
     41  CB        29.1310   23.5910   32.8380 C.3   182  LEU182      0.0270
     42  CG        30.5500   24.1030   33.0360 C.3   182  LEU182      0.0019
     43  CD1       30.8500   24.0460   34.5400 C.3   182  LEU182      0.0001
     44  CD2       31.5760   23.3160   32.1860 C.3   182  LEU182      0.0001
     45  N         25.5370   24.2260   37.1760 N.3   184  HIS184     -0.1241
     46  CA        25.7910   25.1970   38.2340 C.3   184  HIS184      0.1621
     47  C         24.4990   25.5980   38.9310 C.2   184  HIS184      0.2264
     48  O         23.5080   25.8950   38.2600 O.2   184  HIS184     -0.2867
     49  CB        26.4380   26.4290   37.6410 C.3   184  HIS184      0.0745
     50  CG        26.9300   27.3830   38.6730 C.ar  184  HIS184      0.0817
     51  ND1       28.0140   27.1050   39.4790 N.ar  184  HIS184     -0.2268
     52  CD2       26.4840   28.6040   39.0450 C.ar  184  HIS184      0.1154
     53  CE1       28.2220   28.1250   40.2920 C.ar  184  HIS184      0.1986
     54  NE2       27.3140   29.0530   40.0410 N.ar  184  HIS184     -0.2212
     55  N         23.2680   28.5760   40.8580 N.3   186  PHE186     -0.1241
     56  CA        23.5500   29.9360   41.3180 C.3   186  PHE186      0.1605
     57  C         22.9910   30.0880   42.7330 C.2   186  PHE186      0.2264
     58  O         23.6600   30.6250   43.6230 O.2   186  PHE186     -0.2867
     59  CB        22.9030   30.9720   40.4100 C.3   186  PHE186      0.0534
     60  CG        23.3790   30.9230   38.9970 C.ar  186  PHE186     -0.0203
     61  CD1       22.6420   30.2410   38.0300 C.ar  186  PHE186     -0.0042
     62  CD2       24.5430   31.5700   38.6250 C.ar  186  PHE186     -0.0042
     63  CE1       23.0620   30.1970   36.7100 C.ar  186  PHE186     -0.0003
     64  CE2       24.9950   31.5280   37.3000 C.ar  186  PHE186     -0.0003
     65  CZ        24.2400   30.8470   36.3320 C.ar  186  PHE186     -0.0000
     66  N         21.8140   26.6300   36.1670 N.3   192  GLY192     -0.1210
     67  CA        22.1060   26.7960   34.7390 C.3   192  GLY192      0.1956
     68  C         22.9650   25.6470   34.2920 C.2   192  GLY192      0.2612
     69  O         23.5870   24.9640   35.1180 O.2   192  GLY192     -0.2717
     70  N         23.0320   25.4340   32.9830 N.am  193  PHE193     -0.1962
     71  CA        23.9400   24.4270   32.4490 C.3   193  PHE193      0.1771
     72  C         24.3750   24.8140   31.0680 C.2   193  PHE193      0.2619
     73  O         23.6550   25.5380   30.3640 O.2   193  PHE193     -0.2715
     74  CB        23.2520   23.0590   32.4270 C.3   193  PHE193      0.0574
     75  CG        22.1770   22.9690   31.4200 C.ar  193  PHE193     -0.0200
     76  CD1       22.4960   22.8160   30.0730 C.ar  193  PHE193     -0.0042
     77  CD2       20.8610   23.0950   31.7880 C.ar  193  PHE193     -0.0042
     78  CE1       21.5250   22.7830   29.0990 C.ar  193  PHE193     -0.0003
     79  CE2       19.8790   23.0460   30.8190 C.ar  193  PHE193     -0.0003
     80  CZ        20.2150   22.8890   29.4690 C.ar  193  PHE193     -0.0000
     81  N         25.5700   24.3530   30.7090 N.am  194  VAL194     -0.1977
     82  CA        26.0800   24.3900   29.3350 C.3   194  VAL194      0.1596
     83  C         26.5950   23.0030   29.0300 C.2   194  VAL194      0.2287
     84  O         27.2910   22.4190   29.8500 O.2   194  VAL194     -0.2864
     85  CB        27.2130   25.4080   29.1640 C.3   194  VAL194      0.0276
     86  CG1       27.9940   25.1410   27.8740 C.3   194  VAL194      0.0022
     87  CG2       26.6260   26.7950   29.0950 C.3   194  VAL194      0.0022
     88  N         22.4220   25.2910   26.2540 N.3   217  ALA217     -0.1231
     89  CA        22.6490   26.1380   27.4250 C.3   217  ALA217      0.1694
     90  C         21.3030   26.3510   28.0060 C.2   217  ALA217      0.2593
     91  O         20.3060   26.4640   27.2720 O.2   217  ALA217     -0.2718
     92  CB        23.2530   27.4450   27.0100 C.3   217  ALA217      0.0304
     93  N         21.2170   26.4180   29.3140 N.am  218  GLY218     -0.1942
     94  CA        19.8900   26.5020   29.8910 C.3   218  GLY218      0.2014
     95  C         19.8760   27.1510   31.2450 C.2   218  GLY218      0.2638
     96  O         20.8850   27.1580   31.9420 O.2   218  GLY218     -0.2714
     97  N         18.7260   27.6990   31.6100 N.am  219  LEU219     -0.1977
     98  CA        18.5370   28.2850   32.9370 C.3   219  LEU219      0.1596
     99  C         17.3200   27.6680   33.5000 C.2   219  LEU219      0.2287
    100  O         16.3440   27.4430   32.7740 O.2   219  LEU219     -0.2864
    101  CB        18.3070   29.7960   32.8560 C.3   219  LEU219      0.0297
    102  CG        19.4980   30.7490   32.8800 C.3   219  LEU219      0.0022
    103  CD1       18.9390   32.1850   32.8870 C.3   219  LEU219      0.0001
    104  CD2       20.4050   30.5340   34.0930 C.3   219  LEU219      0.0001
    105  N         14.5510   27.6850   30.6230 N.3   230  LEU230     -0.1245
    106  CA        14.8310   28.3280   29.3560 C.3   230  LEU230      0.1561
    107  C         16.0110   27.6190   28.7990 C.2   230  LEU230      0.2260
    108  O         17.0630   27.5640   29.4320 O.2   230  LEU230     -0.2867
    109  CB        15.2390   29.7860   29.5730 C.3   230  LEU230      0.0270
    110  CG        14.8590   30.9410   28.6340 C.3   230  LEU230      0.0019
    111  CD1       15.9030   32.0120   28.7550 C.3   230  LEU230      0.0001
    112  CD2       14.6440   30.6430   27.2050 C.3   230  LEU230      0.0001
    113  N         18.4800   27.0550   25.2640 N.3   232  THR232     -0.1218
    114  CA        18.8040   27.3770   23.8930 C.3   232  THR232      0.1862
    115  C         19.7370   26.2770   23.3920 C.2   232  THR232      0.2287
    116  O         20.5620   25.8180   24.1380 O.2   232  THR232     -0.2866
    117  CB        19.4910   28.7550   23.7510 C.3   232  THR232      0.1770
    118  OG1       20.6690   28.7440   24.5460 O.3   232  THR232     -0.2211
    119  CG2       18.6340   29.9360   24.3000 C.3   232  THR232      0.0375
@<TRIPOS>BOND
     1   115   114    1
     2   115   116    2
     3   117   114    1
     4   117   119    1
     5   117   118    1
     6   114   113    1
     7    88    89    1
     8    92    89    1
     9   112   110    1
    10    91    90    2
    11    89    90    1
    12    86    85    1
    13    90    93   am
    14   110   111    1
    15   110   109    1
    16   107   106    1
    17   107   108    2
    18    83    82    1
    19    83    84    2
    20    87    85    1
    21    78    80   ar
    22    78    76   ar
    23    85    82    1
    24    93    94    1
    25    82    81    1
    26   106   109    1
    27   106   105    1
    28    80    79   ar
    29    94    95    1
    30    76    75   ar
    31    73    72    2
    32    81    72   am
    33    79    77   ar
    34    72    71    1
    35    95    97   am
    36    95    96    2
    37    75    77   ar
    38    75    74    1
    39    97    98    1
    40    37    38    1
    41    44    42    1
    42    74    71    1
    43    71    70    1
    44   100    99    2
    45    41    42    1
    46    41    38    1
    47   101   102    1
    48   101    98    1
    49   102   103    1
    50   102   104    1
    51    98    99    1
    52    70    68   am
    53    42    43    1
    54    40    39    2
    55    38    39    1
    56    68    67    1
    57    68    69    2
    58    67    66    1
    59    65    63   ar
    60    65    64   ar
    61    63    61   ar
    62    45    46    1
    63    64    62   ar
    64     8     6    1
    65    49    46    1
    66    49    50    1
    67    61    60   ar
    68    46    47    1
    69    36    34    1
    70    48    47    2
    71    62    60   ar
    72    50    52   ar
    73    50    51   ar
    74     6     7    1
    75     6     5    1
    76    60    59    1
    77    52    54   ar
    78    51    53   ar
    79    34    35    1
    80    34    31    1
    81     5     2    1
    82    32    31    1
    83    32    33    2
    84    54    53   ar
    85    31    30    1
    86    59    56    1
    87    55    56    1
    88    24    23    2
    89     1     2    1
    90     2     3    1
    91    56    57    1
    92    30    23   am
    93     4     3    2
    94    23    22    1
    95     3     9   am
    96    57    58    2
    97    29    28    1
    98    25    22    1
    99    25    26    1
   100    22    21    1
   101    28    27    1
   102     9    10    1
   103    12    11    2
   104    21    15   am
   105    10    11    1
   106    27    26    1
   107    11    13   am
   108    16    15    2
   109    15    14    1
   110    13    14    1
   111    14    17    1
   112    17    18    1
   113    18    20   ar
   114    18    19   ar
