@<TRIPOS>MOLECULE
tmp/2gufA14.pdb
 139 139 0 0 0
SMALL
GASTEIGER

@<TRIPOS>ATOM
      1  N         -6.9620   13.4030   35.6630 N.3   318  PHE318     -0.1241
      2  CA        -7.1670   13.9750   34.3300 C.3   318  PHE318      0.1605
      3  C         -5.8690   14.6340   33.8800 C.2   318  PHE318      0.2264
      4  O         -5.2320   15.2770   34.6720 O.2   318  PHE318     -0.2867
      5  CB        -8.2490   14.9940   34.4210 C.3   318  PHE318      0.0534
      6  CG        -9.5490   14.4380   34.9730 C.ar  318  PHE318     -0.0203
      7  CD1       -9.8730   14.5970   36.3080 C.ar  318  PHE318     -0.0042
      8  CD2      -10.3840   13.6820   34.1680 C.ar  318  PHE318     -0.0042
      9  CE1      -11.0860   14.0510   36.8300 C.ar  318  PHE318     -0.0003
     10  CE2      -11.5980   13.1290   34.6840 C.ar  318  PHE318     -0.0003
     11  CZ       -11.9300   13.3200   36.0070 C.ar  318  PHE318     -0.0000
     12  N         -6.0120   14.3430   25.7250 N.3   338  THR338     -0.1203
     13  CA        -6.4900   14.2640   27.0810 C.3   338  THR338      0.1994
     14  C         -6.4930   12.7680   27.4690 C.2   338  THR338      0.2619
     15  O         -6.7070   11.9220   26.6250 O.2   338  THR338     -0.2717
     16  CB        -7.8930   14.9280   27.2300 C.3   338  THR338      0.1784
     17  OG1       -8.2300   14.9890   28.6100 O.3   338  THR338     -0.2211
     18  CG2       -8.9530   14.1590   26.5110 C.3   338  THR338      0.0376
     19  N         -6.2820   12.4520   28.7340 N.am  339  SER339     -0.1937
     20  CA        -6.4620   11.0920   29.2220 C.3   339  SER339      0.2055
     21  C         -7.1630   11.2570   30.5400 C.2   339  SER339      0.2642
     22  O         -7.0410   12.3070   31.1700 O.2   339  SER339     -0.2714
     23  CB        -5.1200   10.4590   29.5120 C.3   339  SER339      0.2130
     24  OG        -4.4070   10.3180   28.2870 O.3   339  SER339     -0.2179
     25  N         -7.8770   10.2250   30.9660 N.am  340  ALA340     -0.1977
     26  CA        -8.5390   10.2010   32.2640 C.3   340  ALA340      0.1597
     27  C         -8.2370    8.8020   32.7580 C.2   340  ALA340      0.2287
     28  O         -8.4490    7.8740   31.9760 O.2   340  ALA340     -0.2864
     29  CB        -9.9900   10.3780   32.1020 C.3   340  ALA340      0.0319
     30  N         -8.1790    2.0740   35.2250 N.3   350  PHE350     -0.1227
     31  CA        -8.5220    2.1170   33.7720 C.3   350  PHE350      0.1736
     32  C         -8.2170    3.4820   33.2790 C.2   350  PHE350      0.2595
     33  O         -8.4340    4.4280   33.9950 O.2   350  PHE350     -0.2718
     34  CB        -9.9980    1.9490   33.5520 C.3   350  PHE350      0.0547
     35  CG       -10.5180    0.5680   33.8570 C.ar  350  PHE350     -0.0202
     36  CD1      -11.5760    0.4010   34.7360 C.ar  350  PHE350     -0.0042
     37  CD2      -10.0170   -0.5450   33.1850 C.ar  350  PHE350     -0.0042
     38  CE1      -12.0730   -0.8760   35.0140 C.ar  350  PHE350     -0.0003
     39  CE2      -10.5200   -1.8400   33.4210 C.ar  350  PHE350     -0.0003
     40  CZ       -11.5520   -2.0120   34.3360 C.ar  350  PHE350     -0.0000
     41  N         -7.7190    3.5820   32.0480 N.am  351  ILE351     -0.1966
     42  CA        -7.2940    4.8550   31.4870 C.3   351  ILE351      0.1727
     43  C         -7.8840    4.9120   30.1040 C.2   351  ILE351      0.2616
     44  O         -7.8040    3.9230   29.3660 O.2   351  ILE351     -0.2715
     45  CB        -5.7390    4.8970   31.3810 C.3   351  ILE351      0.0290
     46  CG1       -5.0990    4.6740   32.7610 C.3   351  ILE351      0.0022
     47  CG2       -5.2480    6.2160   30.7190 C.3   351  ILE351      0.0023
     48  CD1       -3.5740    4.4490   32.6650 C.3   351  ILE351      0.0001
     49  N         -8.5030    6.0560   29.7450 N.am  352  ALA352     -0.1963
     50  CA        -8.9280    6.2740   28.3880 C.3   352  ALA352      0.1728
     51  C         -8.2060    7.5160   27.8830 C.2   352  ALA352      0.2617
     52  O         -8.1660    8.5300   28.6210 O.2   352  ALA352     -0.2715
     53  CB       -10.4930    6.4850   28.3270 C.3   352  ALA352      0.0334
     54  N         -7.6430    7.4690   26.6670 N.am  353  SER353     -0.1936
     55  CA        -6.8560    8.5750   26.1590 C.3   353  SER353      0.2055
     56  C         -7.3400    8.9280   24.7720 C.2   353  SER353      0.2643
     57  O         -7.6610    8.0230   24.0020 O.2   353  SER353     -0.2714
     58  CB        -5.3740    8.1330   26.0320 C.3   353  SER353      0.2130
     59  OG        -4.8560    7.9450   27.3430 O.3   353  SER353     -0.2179
     60  N         -7.2920   10.2180   24.4230 N.am  354  TYR354     -0.1973
     61  CA        -7.5030   10.6230   23.0350 C.3   354  TYR354      0.1639
     62  C         -6.4980   11.7130   22.7000 C.2   354  TYR354      0.2290
     63  O         -6.1640   12.5420   23.5570 O.2   354  TYR354     -0.2864
     64  CB        -8.9180   11.1330   22.8240 C.3   354  TYR354      0.0560
     65  CG        -9.1220   11.6970   21.4190 C.ar  354  TYR354     -0.0198
     66  CD1       -9.2660   10.8320   20.3130 C.ar  354  TYR354     -0.0009
     67  CD2       -9.0740   13.0860   21.1810 C.ar  354  TYR354     -0.0009
     68  CE1       -9.4310   11.3400   18.9940 C.ar  354  TYR354      0.0417
     69  CE2       -9.2170   13.6020   19.8730 C.ar  354  TYR354      0.0417
     70  CZ        -9.4090   12.7210   18.8090 C.ar  354  TYR354      0.1957
     71  OH        -9.5460   13.2090   17.5380 O.3   354  TYR354     -0.2866
     72  N         -6.9450    6.8530   19.7880 N.3   383  TRP383     -0.1227
     73  CA        -7.7050    6.5390   20.9690 C.3   383  TRP383      0.1737
     74  C         -7.0080    5.4040   21.6020 C.2   383  TRP383      0.2595
     75  O         -6.6010    4.4980   20.8960 O.2   383  TRP383     -0.2718
     76  CB        -9.0910    5.9960   20.5690 C.3   383  TRP383      0.0564
     77  CG        -9.9350    6.9730   19.8220 C.ar  383  TRP383      0.0003
     78  CD1      -11.0000    7.7250   20.3340 C.ar  383  TRP383      0.0946
     79  CD2       -9.8630    7.2810   18.4130 C.ar  383  TRP383      0.0152
     80  NE1      -11.5630    8.4630   19.3060 N.ar  383  TRP383     -0.2442
     81  CE2      -10.8870    8.2210   18.1340 C.ar  383  TRP383      0.0810
     82  CE3       -9.0370    6.8430   17.3530 C.ar  383  TRP383      0.0012
     83  CZ2      -11.0930    8.7570   16.8300 C.ar  383  TRP383      0.0191
     84  CZ3       -9.2480    7.3610   16.0490 C.ar  383  TRP383      0.0001
     85  CH2      -10.2850    8.3120   15.8060 C.ar  383  TRP383      0.0015
     86  N         -6.8870    5.3960   22.9180 N.am  384  GLU384     -0.1965
     87  CA        -6.2590    4.2780   23.5640 C.3   384  GLU384      0.1733
     88  C         -7.0190    4.0120   24.8700 C.2   384  GLU384      0.2617
     89  O         -7.3560    4.9490   25.5920 O.2   384  GLU384     -0.2715
     90  CB        -4.7590    4.5510   23.8010 C.3   384  GLU384      0.0429
     91  CG        -3.9590    3.3710   24.4700 C.3   384  GLU384      0.1163
     92  CD        -2.4670    3.4140   24.2300 C.2   384  GLU384      0.3649
     93  OE1       -1.6860    2.5240   24.7160 O.co2 384  GLU384     -0.2457
     94  OE2       -2.0640    4.3440   23.5080 O.co2 384  GLU384     -0.2457
     95  N         -7.2440    2.7460   25.1950 N.am  385  GLY385     -0.1940
     96  CA        -7.7710    2.4320   26.5430 C.3   385  GLY385      0.2014
     97  C         -6.9040    1.4000   27.2220 C.2   385  GLY385      0.2639
     98  O         -6.4860    0.4710   26.5750 O.2   385  GLY385     -0.2714
     99  N         -6.6200    1.5850   28.5120 N.am  386  ALA386     -0.1963
    100  CA        -5.6310    0.7950   29.2580 C.3   386  ALA386      0.1728
    101  C         -6.2380    0.2960   30.5530 C.2   386  ALA386      0.2616
    102  O         -7.1590    0.9000   31.0960 O.2   386  ALA386     -0.2715
    103  CB        -4.3630    1.6240   29.5880 C.3   386  ALA386      0.0334
    104  N         -5.7450   -0.8460   31.0000 N.am  387  PHE387     -0.1974
    105  CA        -6.0810   -1.3760   32.3200 C.3   387  PHE387      0.1639
    106  C         -4.7100   -1.6910   32.8830 C.2   387  PHE387      0.2290
    107  O         -3.9540   -2.4180   32.2730 O.2   387  PHE387     -0.2864
    108  CB        -6.9070   -2.6460   32.1270 C.3   387  PHE387      0.0560
    109  CG        -7.4190   -3.2900   33.4110 C.ar  387  PHE387     -0.0200
    110  CD1       -7.3580   -2.6560   34.6520 C.ar  387  PHE387     -0.0042
    111  CD2       -7.9860   -4.5560   33.3400 C.ar  387  PHE387     -0.0042
    112  CE1       -7.8210   -3.2850   35.8280 C.ar  387  PHE387     -0.0003
    113  CE2       -8.5200   -5.1910   34.4880 C.ar  387  PHE387     -0.0003
    114  CZ        -8.4400   -4.5480   35.7410 C.ar  387  PHE387     -0.0000
    115  N         -2.1740   -3.5230   30.2460 N.3   398  ILE398     -0.1231
    116  CA        -2.5180   -3.9180   28.8650 C.3   398  ILE398      0.1692
    117  C         -3.3040   -2.7550   28.3000 C.2   398  ILE398      0.2593
    118  O         -4.0990   -2.1750   29.0010 O.2   398  ILE398     -0.2718
    119  CB        -3.3340   -5.2530   28.7950 C.3   398  ILE398      0.0266
    120  CG1       -3.7580   -5.6230   27.3630 C.3   398  ILE398      0.0019
    121  CG2       -4.6240   -5.1930   29.5910 C.3   398  ILE398      0.0020
    122  CD1       -4.2220   -7.0670   27.2690 C.3   398  ILE398      0.0001
    123  N         -3.0470   -2.3870   27.0520 N.am  399  SER399     -0.1938
    124  CA        -3.8730   -1.3690   26.4420 C.3   399  SER399      0.2055
    125  C         -4.2600   -1.7350   25.0100 C.2   399  SER399      0.2643
    126  O         -3.5900   -2.5570   24.3910 O.2   399  SER399     -0.2714
    127  CB        -3.1960    0.0060   26.4960 C.3   399  SER399      0.2130
    128  OG        -1.9370    0.0280   25.8140 O.3   399  SER399     -0.2179
    129  N         -5.3470   -1.1460   24.4990 N.am  400  GLY400     -0.1954
    130  CA        -5.6700   -1.2710   23.0930 C.3   400  GLY400      0.1869
    131  C         -5.5800    0.1010   22.5610 C.2   400  GLY400      0.2309
    132  O         -5.9660    1.0340   23.2670 O.2   400  GLY400     -0.2863
    133  N         -2.3960   -3.8120   20.3630 N.3   429  VAL429     -0.1245
    134  CA        -2.5040   -4.1260   21.7730 C.3   429  VAL429      0.1561
    135  C         -1.1070   -4.1050   22.2770 C.2   429  VAL429      0.2260
    136  O         -0.1930   -4.6210   21.6260 O.2   429  VAL429     -0.2867
    137  CB        -3.0130   -5.5540   21.9910 C.3   429  VAL429      0.0252
    138  CG1       -2.9840   -5.9070   23.4580 C.3   429  VAL429      0.0019
    139  CG2       -4.4010   -5.6670   21.4580 C.3   429  VAL429      0.0019
@<TRIPOS>BOND
     1    85    84   ar
     2    85    83   ar
     3    84    82   ar
     4    83    81   ar
     5    82    79   ar
     6    71    70    1
     7    81    79   ar
     8    81    80   ar
     9    79    77   ar
    10    70    68   ar
    11    70    69   ar
    12    68    66   ar
    13    80    78   ar
    14    72    73    1
    15    77    78   ar
    16    77    76    1
    17    69    67   ar
    18    66    65   ar
    19   133   134    1
    20    76    73    1
    21    75    74    2
    22    73    74    1
    23    67    65   ar
    24    65    64    1
    25   139   137    1
    26    74    86   am
    27   136   135    2
    28   134   137    1
    29   134   135    1
    30   137   138    1
    31   131   130    1
    32   131   132    2
    33    62    61    1
    34    62    63    2
    35    64    61    1
    36    86    87    1
    37    61    60    1
    38   130   129    1
    39    94    92   ar
    40    87    90    1
    41    87    88    1
    42    90    91    1
    43    57    56    2
    44    92    91    1
    45    92    93   ar
    46   126   125    2
    47    60    56   am
    48   129   125   am
    49    56    55    1
    50    88    95   am
    51    88    89    2
    52   125   124    1
    53    95    96    1
    54    12    13    1
    55   128   127    1
    56    58    55    1
    57    58    59    1
    58    55    54    1
    59   124   127    1
    60   124   123    1
    61    18    16    1
    62    96    97    1
    63    98    97    2
    64    15    14    2
    65    54    51   am
    66   123   117   am
    67    13    16    1
    68    13    14    1
    69    97    99   am
    70    16    17    1
    71   122   120    1
    72   120   119    1
    73    14    19   am
    74    51    50    1
    75    51    52    2
    76    24    23    1
    77   117   116    1
    78   117   118    2
    79    53    50    1
    80    50    49    1
    81    99   100    1
    82    19    20    1
    83   119   116    1
    84   119   121    1
    85   116   115    1
    86    20    23    1
    87    20    21    1
    88   100   103    1
    89   100   101    1
    90    44    43    2
    91    49    43   am
    92    43    42    1
    93    21    25   am
    94    21    22    2
    95   101   104   am
    96   101   102    2
    97    47    45    1
    98    25    26    1
    99   104   105    1
   100    45    42    1
   101    45    46    1
   102    42    41    1
   103    28    27    2
   104    41    32   am
   105    29    26    1
   106   108   105    1
   107   108   109    1
   108    26    27    1
   109   107   106    2
   110   105   106    1
   111    48    46    1
   112    37    39   ar
   113    37    35   ar
   114    32    31    1
   115    32    33    2
   116   111   109   ar
   117   111   113   ar
   118   109   110   ar
   119    39    40   ar
   120    34    31    1
   121    34    35    1
   122    31    30    1
   123    35    36   ar
   124     3     2    1
   125     3     4    2
   126     8    10   ar
   127     8     6   ar
   128     2     5    1
   129     2     1    1
   130    40    38   ar
   131     5     6    1
   132   113   114   ar
   133   110   112   ar
   134    10    11   ar
   135    36    38   ar
   136     6     7   ar
   137   114   112   ar
   138    11     9   ar
   139     7     9   ar
