@<TRIPOS>MOLECULE
tmp/2gufA05.pdb
 111 109 0 0 0
SMALL
GASTEIGER

@<TRIPOS>ATOM
      1  N         17.7400   28.7470   41.5190 N.3   190  TRP190     -0.1241
      2  CA        18.2180   29.0120   40.1830 C.3   190  TRP190      0.1605
      3  C         19.3900   28.1230   39.8220 C.2   190  TRP190      0.2264
      4  O         20.3410   28.0040   40.5860 O.2   190  TRP190     -0.2867
      5  CB        18.6550   30.4630   40.0760 C.3   190  TRP190      0.0550
      6  CG        17.5240   31.3760   39.9520 C.ar  190  TRP190      0.0003
      7  CD1       16.9160   32.0750   40.9620 C.ar  190  TRP190      0.0946
      8  CD2       16.8130   31.6890   38.7500 C.ar  190  TRP190      0.0152
      9  NE1       15.8810   32.8160   40.4480 N.ar  190  TRP190     -0.2442
     10  CE2       15.7970   32.5970   39.0960 C.ar  190  TRP190      0.0810
     11  CE3       16.9330   31.2770   37.4060 C.ar  190  TRP190      0.0012
     12  CZ2       14.9220   33.1250   38.1500 C.ar  190  TRP190      0.0191
     13  CZ3       16.0720   31.7920   36.4750 C.ar  190  TRP190      0.0001
     14  CH2       15.0790   32.7080   36.8440 C.ar  190  TRP190      0.0015
     15  N         14.6340   27.5160   36.9750 N.3   221  TYR221     -0.1241
     16  CA        14.1880   28.0040   38.2480 C.3   221  TYR221      0.1605
     17  C         13.3450   26.9250   38.8220 C.2   221  TYR221      0.2264
     18  O         12.3450   26.4930   38.2080 O.2   221  TYR221     -0.2867
     19  CB        13.3540   29.2550   38.0920 C.3   221  TYR221      0.0534
     20  CG        12.7420   29.7090   39.4140 C.ar  221  TYR221     -0.0201
     21  CD1       13.5270   30.2900   40.3940 C.ar  221  TYR221     -0.0009
     22  CD2       11.3920   29.5370   39.6740 C.ar  221  TYR221     -0.0009
     23  CE1       12.9990   30.7050   41.6050 C.ar  221  TYR221      0.0417
     24  CE2       10.8390   29.9620   40.8930 C.ar  221  TYR221      0.0417
     25  CZ        11.6480   30.5490   41.8350 C.ar  221  TYR221      0.1957
     26  OH        11.1500   30.9380   43.0350 O.3   221  TYR221     -0.2866
     27  N          6.4770   27.0970   41.5060 N.3   226  ILE226     -0.1231
     28  CA         6.7230   27.4830   40.1330 C.3   226  ILE226      0.1692
     29  C          8.0230   26.9190   39.6490 C.2   226  ILE226      0.2592
     30  O          9.0750   27.0030   40.3460 O.2   226  ILE226     -0.2718
     31  CB         6.7740   29.0020   40.0120 C.3   226  ILE226      0.0266
     32  CG1        5.3750   29.6020   40.1760 C.3   226  ILE226      0.0019
     33  CG2        7.3270   29.4360   38.6740 C.3   226  ILE226      0.0020
     34  CD1        5.4930   31.1270   40.3770 C.3   226  ILE226      0.0001
     35  N          7.9840   26.3750   38.4360 N.am  227  LYS227     -0.1966
     36  CA         9.2110   25.9180   37.8220 C.3   227  LYS227      0.1728
     37  C          9.2300   26.5120   36.4240 C.2   227  LYS227      0.2616
     38  O          8.1750   26.6250   35.7590 O.2   227  LYS227     -0.2715
     39  CB         9.2570   24.3650   37.7390 C.3   227  LYS227      0.0311
     40  CG         8.9040   23.5190   39.0300 C.3   227  LYS227      0.0038
     41  CD         9.4240   22.0080   38.8100 C.3   227  LYS227      0.0206
     42  CE         8.5190   20.8820   39.4540 C.3   227  LYS227      0.1093
     43  NZ         8.5290   19.4190   38.7780 N.3   227  LYS227     -0.1314
     44  N         10.4160   26.8480   35.9740 N.am  228  SER228     -0.1950
     45  CA        10.6030   27.4110   34.6430 C.3   228  SER228      0.1924
     46  C         11.8740   26.9070   34.0790 C.2   228  SER228      0.2314
     47  O         12.8350   26.6580   34.8220 O.2   228  SER228     -0.2863
     48  CB        10.7420   28.9260   34.7870 C.3   228  SER228      0.2116
     49  OG        10.5400   29.5400   33.5370 O.3   228  SER228     -0.2180
     50  N         11.0100   27.9280   26.0570 N.3   265  TRP265     -0.1241
     51  CA        10.7420   28.4360   27.4080 C.3   265  TRP265      0.1605
     52  C          9.5740   27.6810   27.9010 C.2   265  TRP265      0.2264
     53  O          8.5290   27.6760   27.2170 O.2   265  TRP265     -0.2867
     54  CB        10.4310   29.9440   27.3580 C.3   265  TRP265      0.0550
     55  CG        10.2540   30.5270   28.6830 C.ar  265  TRP265      0.0003
     56  CD1       10.9200   30.1760   29.8500 C.ar  265  TRP265      0.0946
     57  CD2        9.3410   31.5610   29.0380 C.ar  265  TRP265      0.0152
     58  NE1       10.4900   30.9470   30.8850 N.ar  265  TRP265     -0.2442
     59  CE2        9.5020   31.7960   30.4310 C.ar  265  TRP265      0.0810
     60  CE3        8.4190   32.3350   28.3180 C.ar  265  TRP265      0.0012
     61  CZ2        8.7650   32.7990   31.1260 C.ar  265  TRP265      0.0191
     62  CZ3        7.6480   33.3280   29.0330 C.ar  265  TRP265      0.0001
     63  CH2        7.8330   33.5350   30.4100 C.ar  265  TRP265      0.0015
     64  N          7.1540   26.4980   31.3850 N.3   267  ASN267     -0.1225
     65  CA         6.7850   26.8330   32.7640 C.3   267  ASN267      0.1785
     66  C          5.8220   25.8530   33.3030 C.2   267  ASN267      0.2597
     67  O          4.9660   25.3650   32.5780 O.2   267  ASN267     -0.2718
     68  CB         6.0720   28.1850   32.8210 C.3   267  ASN267      0.1169
     69  CG         6.9050   29.2490   32.2810 C.2   267  ASN267      0.2627
     70  OD1        7.8110   29.7070   32.9560 O.2   267  ASN267     -0.2716
     71  ND2        6.6980   29.5830   31.0070 N.am  267  ASN267     -0.0877
     72  N          5.8490   25.6660   34.6250 N.am  268  ASN268     -0.1960
     73  CA         4.9750   24.7200   35.2280 C.3   268  ASN268      0.1819
     74  C          4.7260   25.1990   36.6530 C.2   268  ASN268      0.2621
     75  O          5.6080   25.7310   37.2960 O.2   268  ASN268     -0.2715
     76  CB         5.6160   23.3220   35.2440 C.3   268  ASN268      0.1195
     77  CG         4.5960   22.2170   35.5920 C.2   268  ASN268      0.2630
     78  OD1        4.0250   21.5620   34.7080 O.2   268  ASN268     -0.2716
     79  ND2        4.3140   22.0900   36.8560 N.am  268  ASN268     -0.0877
     80  N          3.5210   25.0310   37.1360 N.am  269  VAL269     -0.1977
     81  CA         3.2920   25.3590   38.5060 C.3   269  VAL269      0.1596
     82  C          2.4100   24.2830   39.1370 C.2   269  VAL269      0.2287
     83  O          1.4830   23.7980   38.5200 O.2   269  VAL269     -0.2864
     84  CB         2.6390   26.7730   38.6300 C.3   269  VAL269      0.0276
     85  CG1        1.2560   26.7690   37.9670 C.3   269  VAL269      0.0022
     86  CG2        2.5560   27.2500   40.1410 C.3   269  VAL269      0.0022
     87  N         -0.3060   22.8260   36.2720 N.3   276  ILE276     -0.1231
     88  CA        -0.5530   23.3160   34.9300 C.3   276  ILE276      0.1692
     89  C          0.7340   23.8930   34.3830 C.2   276  ILE276      0.2593
     90  O          1.6000   24.2590   35.1260 O.2   276  ILE276     -0.2718
     91  CB        -1.6520   24.3590   34.8760 C.3   276  ILE276      0.0266
     92  CG1       -1.3100   25.5890   35.7060 C.3   276  ILE276      0.0019
     93  CG2       -2.9720   23.7340   35.3120 C.3   276  ILE276      0.0020
     94  CD1       -2.5570   26.4760   35.8630 C.3   276  ILE276      0.0001
     95  N          0.8670   23.9780   33.0860 N.am  277  GLY277     -0.1942
     96  CA         2.1210   24.3850   32.5130 C.3   277  GLY277      0.2014
     97  C          1.8770   25.0310   31.1670 C.2   277  GLY277      0.2638
     98  O          0.8340   24.8390   30.5700 O.2   277  GLY277     -0.2714
     99  N          2.8140   25.8370   30.7130 N.am  278  ALA278     -0.1977
    100  CA         2.7180   26.3550   29.3490 C.3   278  ALA278      0.1597
    101  C          4.0900   26.6560   28.8690 C.2   278  ALA278      0.2287
    102  O          5.0130   26.7960   29.6640 O.2   278  ALA278     -0.2864
    103  CB         1.8730   27.6230   29.2840 C.3   278  ALA278      0.0319
    104  N         -0.0620   24.3000   26.1990 N.3   307  LEU307     -0.1245
    105  CA        -0.6300   24.3190   27.5060 C.3   307  LEU307      0.1561
    106  C         -0.6660   22.8430   28.0130 C.2   307  LEU307      0.2260
    107  O         -0.8670   21.9100   27.2180 O.2   307  LEU307     -0.2867
    108  CB        -2.0630   24.8400   27.3250 C.3   307  LEU307      0.0270
    109  CG        -2.8630   25.0740   28.5930 C.3   307  LEU307      0.0019
    110  CD1       -2.1580   26.0400   29.5700 C.3   307  LEU307      0.0001
    111  CD2       -4.2540   25.6080   28.1160 C.3   307  LEU307      0.0001
@<TRIPOS>BOND
     1    50    51    1
     2   104   105    1
     3    53    52    2
     4   107   106    2
     5   108   105    1
     6   108   109    1
     7    54    51    1
     8    54    55    1
     9    51    52    1
    10   105   106    1
    11   111   109    1
    12    60    62   ar
    13    60    57   ar
    14   109   110    1
    15    55    57   ar
    16    55    56   ar
    17   101   100    1
    18   101   102    2
    19    62    63   ar
    20    57    59   ar
    21   103   100    1
    22   100    99    1
    23    56    58   ar
    24    63    61   ar
    25    59    58   ar
    26    59    61   ar
    27    98    97    2
    28    99    97   am
    29    71    69   am
    30    97    96    1
    31    64    65    1
    32    69    68    1
    33    69    70    2
    34    96    95    1
    35    67    66    2
    36    65    68    1
    37    65    66    1
    38    95    89   am
    39    66    72   am
    40    49    48    1
    41    46    45    1
    42    46    47    2
    43    89    88    1
    44    89    90    2
    45    72    73    1
    46    45    48    1
    47    45    44    1
    48    78    77    2
    49    91    88    1
    50    91    93    1
    51    91    92    1
    52    88    87    1
    53    73    76    1
    54    73    74    1
    55    76    77    1
    56    77    79   am
    57    92    94    1
    58    38    37    2
    59    44    37   am
    60    37    36    1
    61    13    14   ar
    62    13    11   ar
    63    74    80   am
    64    74    75    2
    65    14    12   ar
    66    15    16    1
    67    80    81    1
    68    11     8   ar
    69    39    36    1
    70    39    40    1
    71    36    35    1
    72    85    84    1
    73    19    16    1
    74    19    20    1
    75    12    10   ar
    76    18    17    2
    77    16    17    1
    78    35    29   am
    79    81    84    1
    80    81    82    1
    81    83    82    2
    82    84    86    1
    83    33    31    1
    84     8    10   ar
    85     8     6   ar
    86    43    42    1
    87    41    40    1
    88    41    42    1
    89    10     9   ar
    90    20    22   ar
    91    20    21   ar
    92    29    28    1
    93    29    30    2
    94    22    24   ar
    95     3     2    1
    96     3     4    2
    97     6     5    1
    98     6     7   ar
    99    31    28    1
   100    31    32    1
   101     5     2    1
   102    28    27    1
   103    32    34    1
   104     2     1    1
   105    21    23   ar
   106     9     7   ar
   107    24    25   ar
   108    23    25   ar
   109    25    26    1
