@<TRIPOS>MOLECULE
tmp/2gufA02.pdb
 97 88 0 0 0
SMALL
GASTEIGER

@<TRIPOS>ATOM
      1  N         14.6500   18.3660   20.4100 N.3    78  ARG78      -0.1245
      2  CA        14.5790   17.6290   19.1890 C.3    78  ARG78       0.1563
      3  C         15.9500   17.2940   18.5930 C.2    78  ARG78       0.2260
      4  O         16.8910   18.1410   18.4800 O.2    78  ARG78      -0.2867
      5  CB        13.6110   18.3760   18.2040 C.3    78  ARG78       0.0307
      6  CG        13.6080   17.8370   16.8590 C.3    78  ARG78       0.0489
      7  CD        12.9590   18.8220   15.8810 C.3    78  ARG78       0.2205
      8  NE        11.6190   19.2590   16.3550 N.pl3  78  ARG78      -0.0865
      9  CZ        10.4940   18.5720   16.2360 C.cat  78  ARG78       0.5346
     10  NH1       10.4570   17.4030   15.6230 N.pl3  78  ARG78       0.1354
     11  NH2        9.3890   19.1240   16.6870 N.pl3  78  ARG78       0.1354
     12  N         16.2000   15.4280   10.1760 N.3    82  ALA82      -0.1245
     13  CA        15.6680   16.0080    8.9670 C.3    82  ALA82       0.1562
     14  C         16.6240   15.8830    7.7900 C.2    82  ALA82       0.2260
     15  O         16.3970   16.5250    6.7520 O.2    82  ALA82      -0.2867
     16  CB        15.3890   17.4470    9.1870 C.3    82  ALA82       0.0290
     17  N          5.5310   18.8000   15.9170 N.3   114  SER114     -0.1202
     18  CA         5.6100   17.8180   14.8450 C.3   114  SER114      0.2020
     19  C          6.4420   16.5730   15.2030 C.2   114  SER114      0.2618
     20  O          7.4950   16.6850   15.8530 O.2   114  SER114     -0.2717
     21  CB         6.2930   18.5180   13.6560 C.3   114  SER114      0.2103
     22  OG         6.3600   17.6300   12.5730 O.3   114  SER114     -0.2182
     23  N          5.9930   15.4080   14.7100 N.am  115  ASP115     -0.1973
     24  CA         6.6820   14.1190   14.7530 C.3   115  ASP115      0.1709
     25  C          6.2570   13.2380   15.8900 C.2   115  ASP115      0.2293
     26  O          6.3590   12.0280   15.8040 O.2   115  ASP115     -0.2864
     27  CB         8.2390   14.2100   14.8060 C.3   115  ASP115      0.1436
     28  CG         8.8500   14.9450   13.6320 C.2   115  ASP115      0.3671
     29  OD1        8.1220   15.6800   12.8760 O.co2 115  ASP115     -0.2456
     30  OD2       10.0950   14.8280   13.4910 O.co2 115  ASP115     -0.2456
     31  N         12.0770   27.0790   16.6360 N.3   283  GLN283     -0.1245
     32  CA        13.0250   26.1160   16.2040 C.3   283  GLN283      0.1566
     33  C         13.2310   26.3730   14.7340 C.2   283  GLN283      0.2260
     34  O         12.2800   26.6900   14.0190 O.2   283  GLN283     -0.2867
     35  CB        12.4360   24.7340   16.3590 C.3   283  GLN283      0.0367
     36  CG        13.5590   23.6870   16.2830 C.3   283  GLN283      0.0905
     37  CD        13.0520   22.3910   16.8520 C.2   283  GLN283      0.2608
     38  OE1       13.3610   22.0150   17.9890 O.2   283  GLN283     -0.2717
     39  NE2       12.1710   21.7740   16.1160 N.am  283  GLN283     -0.0878
     40  N         15.4890   24.6200   11.3220 N.3   285  GLN285     -0.1245
     41  CA        16.4480   23.6670   10.7500 C.3   285  GLN285      0.1566
     42  C         16.8620   24.1650    9.4030 C.2   285  GLN285      0.2260
     43  O         16.0190   24.6480    8.6500 O.2   285  GLN285     -0.2867
     44  CB        15.6960   22.3110   10.5840 C.3   285  GLN285      0.0367
     45  CG        15.6180   21.5610   11.9130 C.3   285  GLN285      0.0905
     46  CD        14.9330   20.1950   11.8180 C.2   285  GLN285      0.2608
     47  OE1       15.0530   19.3530   12.7400 O.2   285  GLN285     -0.2717
     48  NE2       14.1500   19.9960   10.7710 N.am  285  GLN285     -0.0878
     49  N         13.4230   25.3020    7.5420 N.3   300  GLN300     -0.1231
     50  CA        12.0780   25.2750    7.9710 C.3   300  GLN300      0.1698
     51  C         12.1380   25.8170    9.3310 C.2   300  GLN300      0.2592
     52  O         13.0340   25.4660   10.0940 O.2   300  GLN300     -0.2718
     53  CB        11.4780   23.8590    8.1210 C.3   300  GLN300      0.0381
     54  CG        11.0590   23.1840    6.8600 C.3   300  GLN300      0.0905
     55  CD        10.0270   22.0610    7.0610 C.2   300  GLN300      0.2608
     56  OE1        9.5090   21.5260    6.0780 O.2   300  GLN300     -0.2717
     57  NE2        9.6700   21.7590    8.3110 N.am  300  GLN300     -0.0878
     58  N         11.1010   26.5650    9.6680 N.am  301  ARG301     -0.1966
     59  CA        10.9940   27.1270   11.0030 C.3   301  ARG301      0.1729
     60  C          9.7260   26.8250   11.6180 C.2   301  ARG301      0.2616
     61  O          8.7110   26.6570   10.9380 O.2   301  ARG301     -0.2715
     62  CB        11.0650   28.6640   10.9490 C.3   301  ARG301      0.0348
     63  CG        12.5160   29.1090   10.6500 C.3   301  ARG301      0.0492
     64  CD        12.6880   29.6440    9.2470 C.3   301  ARG301      0.2205
     65  NE        11.7330   30.7120    8.9750 N.pl3 301  ARG301     -0.0865
     66  CZ        11.3010   31.0610    7.7590 C.cat 301  ARG301      0.5346
     67  NH1       11.7510   30.4410    6.6530 N.pl3 301  ARG301      0.1354
     68  NH2       10.3870   32.0280    7.6640 N.pl3 301  ARG301      0.1354
     69  N          9.7230   26.8650   12.9350 N.am  302  ASN302     -0.1972
     70  CA         8.4770   26.6460   13.5990 C.3   302  ASN302      0.1688
     71  C          8.4330   27.3760   14.9320 C.2   302  ASN302      0.2292
     72  O          9.4180   27.3640   15.6920 O.2   302  ASN302     -0.2864
     73  CB         8.2670   25.1460   13.8210 C.3   302  ASN302      0.1181
     74  CG         6.9340   24.8510   14.4260 C.2   302  ASN302      0.2629
     75  OD1        5.9870   24.6620   13.6880 O.2   302  ASN302     -0.2716
     76  ND2        6.8460   24.7950   15.7420 N.am  302  ASN302     -0.0877
     77  N          4.2760   26.5840   11.2950 N.3   327  ASN327     -0.1240
     78  CA         5.3690   26.0060   10.5420 C.3   327  ASN327      0.1653
     79  C          5.5600   26.8710    9.3100 C.2   327  ASN327      0.2266
     80  O          4.5750   27.1750    8.6200 O.2   327  ASN327     -0.2867
     81  CB         5.0000   24.5300   10.1660 C.3   327  ASN327      0.1155
     82  CG         6.1900   23.7800    9.5590 C.2   327  ASN327      0.2627
     83  OD1        6.8010   22.9290   10.2100 O.2   327  ASN327     -0.2716
     84  ND2        6.5770   24.1620    8.3840 N.am  327  ASN327     -0.0877
     85  N          4.9360   17.2020   10.1340 N.3   360  ALA360     -0.1245
     86  CA         5.1150   18.0070    8.9540 C.3   360  ALA360      0.1562
     87  C          6.3640   17.5320    8.2220 C.2   360  ALA360      0.2260
     88  O          7.4350   17.5470    8.8280 O.2   360  ALA360     -0.2867
     89  CB         5.2210   19.4970    9.3270 C.3   360  ALA360      0.0290
     90  N          9.7850   17.0340    6.7780 N.3   362  ASN362     -0.1240
     91  CA        10.9690   17.8450    7.1030 C.3   362  ASN362      0.1653
     92  C         11.8540   18.0390    5.8560 C.2   362  ASN362      0.2266
     93  O         11.5750   17.5100    4.7740 O.2   362  ASN362     -0.2867
     94  CB        11.7220   17.1740    8.2550 C.3   362  ASN362      0.1155
     95  CG        12.1890   15.7470    7.8950 C.2   362  ASN362      0.2627
     96  OD1       12.4840   15.4700    6.7480 O.2   362  ASN362     -0.2716
     97  ND2       12.2520   14.8670    8.8770 N.am  362  ASN362     -0.0877
@<TRIPOS>BOND
     1    93    92    2
     2    92    91    1
     3    56    55    2
     4    67    66    1
     5    96    95    2
     6    15    14    2
     7    90    91    1
     8    54    55    1
     9    54    53    1
    10    55    57   am
    11    91    94    1
    12    49    50    1
    13    68    66    1
    14    66    65    2
    15    14    13    1
    16    95    94    1
    17    95    97   am
    18    50    53    1
    19    50    51    1
    20    87    88    2
    21    87    86    1
    22    84    82   am
    23    80    79    2
    24    43    42    2
    25    86    89    1
    26    86    85    1
    27    13    16    1
    28    13    12    1
    29    65    64    1
    30    64    63    1
    31    79    78    1
    32    51    58   am
    33    51    52    2
    34    42    41    1
    35    82    81    1
    36    82    83    2
    37    58    59    1
    38    81    78    1
    39    78    77    1
    40    44    41    1
    41    44    45    1
    42    63    62    1
    43    41    40    1
    44    48    46   am
    45    61    60    2
    46    62    59    1
    47    59    60    1
    48    60    69   am
    49    46    45    1
    50    46    47    2
    51    22    21    1
    52    29    28   ar
    53    69    70    1
    54    30    28   ar
    55    70    73    1
    56    70    71    1
    57    28    27    1
    58    21    18    1
    59    75    74    2
    60    73    74    1
    61    34    33    2
    62    74    76   am
    63    23    24    1
    64    23    19   am
    65    33    32    1
    66    24    27    1
    67    24    25    1
    68    18    19    1
    69    18    17    1
    70    71    72    2
    71    19    20    2
    72    10     9    1
    73    26    25    2
    74     7     8    1
    75     7     6    1
    76    39    37   am
    77    32    35    1
    78    32    31    1
    79     9     8    2
    80     9    11    1
    81    36    35    1
    82    36    37    1
    83    37    38    2
    84     6     5    1
    85     5     2    1
    86     4     3    2
    87     3     2    1
    88     2     1    1
