@<TRIPOS>MOLECULE
tmp/2gufA07.pdb
 133 130 0 0 0
SMALL
GASTEIGER

@<TRIPOS>ATOM
      1  N         17.7400   28.7470   41.5190 N.3   190  TRP190     -0.1241
      2  CA        18.2180   29.0120   40.1830 C.3   190  TRP190      0.1605
      3  C         19.3900   28.1230   39.8220 C.2   190  TRP190      0.2264
      4  O         20.3410   28.0040   40.5860 O.2   190  TRP190     -0.2867
      5  CB        18.6550   30.4630   40.0760 C.3   190  TRP190      0.0550
      6  CG        17.5240   31.3760   39.9520 C.ar  190  TRP190      0.0003
      7  CD1       16.9160   32.0750   40.9620 C.ar  190  TRP190      0.0946
      8  CD2       16.8130   31.6890   38.7500 C.ar  190  TRP190      0.0152
      9  NE1       15.8810   32.8160   40.4480 N.ar  190  TRP190     -0.2442
     10  CE2       15.7970   32.5970   39.0960 C.ar  190  TRP190      0.0810
     11  CE3       16.9330   31.2770   37.4060 C.ar  190  TRP190      0.0012
     12  CZ2       14.9220   33.1250   38.1500 C.ar  190  TRP190      0.0191
     13  CZ3       16.0720   31.7920   36.4750 C.ar  190  TRP190      0.0001
     14  CH2       15.0790   32.7080   36.8440 C.ar  190  TRP190      0.0015
     15  N         18.7260   27.6990   31.6100 N.3   219  LEU219     -0.1245
     16  CA        18.5370   28.2850   32.9370 C.3   219  LEU219      0.1561
     17  C         17.3200   27.6680   33.5000 C.2   219  LEU219      0.2260
     18  O         16.3440   27.4430   32.7740 O.2   219  LEU219     -0.2867
     19  CB        18.3070   29.7960   32.8560 C.3   219  LEU219      0.0270
     20  CG        19.4980   30.7490   32.8800 C.3   219  LEU219      0.0019
     21  CD1       18.9390   32.1850   32.8870 C.3   219  LEU219      0.0001
     22  CD2       20.4050   30.5340   34.0930 C.3   219  LEU219      0.0001
     23  N         14.6340   27.5160   36.9750 N.3   221  TYR221     -0.1241
     24  CA        14.1880   28.0040   38.2480 C.3   221  TYR221      0.1605
     25  C         13.3450   26.9250   38.8220 C.2   221  TYR221      0.2264
     26  O         12.3450   26.4930   38.2080 O.2   221  TYR221     -0.2867
     27  CB        13.3540   29.2550   38.0920 C.3   221  TYR221      0.0534
     28  CG        12.7420   29.7090   39.4140 C.ar  221  TYR221     -0.0201
     29  CD1       13.5270   30.2900   40.3940 C.ar  221  TYR221     -0.0009
     30  CD2       11.3920   29.5370   39.6740 C.ar  221  TYR221     -0.0009
     31  CE1       12.9990   30.7050   41.6050 C.ar  221  TYR221      0.0417
     32  CE2       10.8390   29.9620   40.8930 C.ar  221  TYR221      0.0417
     33  CZ        11.6480   30.5490   41.8350 C.ar  221  TYR221      0.1957
     34  OH        11.1500   30.9380   43.0350 O.3   221  TYR221     -0.2866
     35  N         10.4160   26.8480   35.9740 N.3   228  SER228     -0.1202
     36  CA        10.6030   27.4110   34.6430 C.3   228  SER228      0.2020
     37  C         11.8740   26.9070   34.0790 C.2   228  SER228      0.2619
     38  O         12.8350   26.6580   34.8220 O.2   228  SER228     -0.2717
     39  CB        10.7420   28.9260   34.7870 C.3   228  SER228      0.2103
     40  OG        10.5400   29.5400   33.5370 O.3   228  SER228     -0.2182
     41  N         11.9660   26.7920   32.7640 N.am  229  GLN229     -0.1965
     42  CA        13.2440   26.4580   32.1830 C.3   229  GLN229      0.1733
     43  C         13.3650   27.2000   30.8980 C.2   229  GLN229      0.2616
     44  O         12.3940   27.3410   30.1660 O.2   229  GLN229     -0.2715
     45  CB        13.3670   24.9320   31.9490 C.3   229  GLN229      0.0408
     46  CG        12.1260   24.3450   31.2430 C.3   229  GLN229      0.0908
     47  CD        12.1900   22.8040   30.9710 C.2   229  GLN229      0.2608
     48  OE1       12.2290   21.9890   31.9190 O.2   229  GLN229     -0.2717
     49  NE2       12.1460   22.4210   29.6830 N.am  229  GLN229     -0.0878
     50  N         14.5510   27.6850   30.6230 N.am  230  LEU230     -0.1977
     51  CA        14.8310   28.3280   29.3560 C.3   230  LEU230      0.1596
     52  C         16.0110   27.6190   28.7990 C.2   230  LEU230      0.2287
     53  O         17.0630   27.5640   29.4320 O.2   230  LEU230     -0.2864
     54  CB        15.2390   29.7860   29.5730 C.3   230  LEU230      0.0297
     55  CG        14.8590   30.9410   28.6340 C.3   230  LEU230      0.0022
     56  CD1       15.9030   32.0120   28.7550 C.3   230  LEU230      0.0001
     57  CD2       14.6440   30.6430   27.2050 C.3   230  LEU230      0.0001
     58  N         14.9850   27.7050   20.6330 N.3   263  VAL263     -0.1245
     59  CA        14.8450   28.4830   21.8660 C.3   263  VAL263      0.1561
     60  C         13.5910   28.0380   22.4870 C.2   263  VAL263      0.2260
     61  O         12.5430   28.0630   21.8120 O.2   263  VAL263     -0.2867
     62  CB        14.8490   30.0180   21.6260 C.3   263  VAL263      0.0252
     63  CG1       14.7370   30.7450   22.9720 C.3   263  VAL263      0.0019
     64  CG2       16.1740   30.4100   20.9730 C.3   263  VAL263      0.0019
     65  N         11.0100   27.9280   26.0570 N.3   265  TRP265     -0.1241
     66  CA        10.7420   28.4360   27.4080 C.3   265  TRP265      0.1605
     67  C          9.5740   27.6810   27.9010 C.2   265  TRP265      0.2264
     68  O          8.5290   27.6760   27.2170 O.2   265  TRP265     -0.2867
     69  CB        10.4310   29.9440   27.3580 C.3   265  TRP265      0.0550
     70  CG        10.2540   30.5270   28.6830 C.ar  265  TRP265      0.0003
     71  CD1       10.9200   30.1760   29.8500 C.ar  265  TRP265      0.0946
     72  CD2        9.3410   31.5610   29.0380 C.ar  265  TRP265      0.0152
     73  NE1       10.4900   30.9470   30.8850 N.ar  265  TRP265     -0.2442
     74  CE2        9.5020   31.7960   30.4310 C.ar  265  TRP265      0.0810
     75  CE3        8.4190   32.3350   28.3180 C.ar  265  TRP265      0.0012
     76  CZ2        8.7650   32.7990   31.1260 C.ar  265  TRP265      0.0191
     77  CZ3        7.6480   33.3280   29.0330 C.ar  265  TRP265      0.0001
     78  CH2        7.8330   33.5350   30.4100 C.ar  265  TRP265      0.0015
     79  N          6.5900   28.1300   25.1970 N.3   280  VAL280     -0.1231
     80  CA         6.6270   28.5960   23.8140 C.3   280  VAL280      0.1692
     81  C          8.0040   28.2000   23.3390 C.2   280  VAL280      0.2592
     82  O          8.8950   28.1410   24.1590 O.2   280  VAL280     -0.2718
     83  CB         6.3420   30.1660   23.7440 C.3   280  VAL280      0.0266
     84  CG1        7.2860   30.9460   24.6420 C.3   280  VAL280      0.0020
     85  CG2        6.4370   30.7090   22.2830 C.3   280  VAL280      0.0020
     86  N          8.1610   27.8400   22.0690 N.am  281  ASP281     -0.1960
     87  CA         9.4790   27.5460   21.5610 C.3   281  ASP281      0.1840
     88  C          9.5230   27.9490   20.1120 C.2   281  ASP281      0.2622
     89  O          8.4900   28.1040   19.4480 O.2   281  ASP281     -0.2715
     90  CB         9.8060   26.0410   21.7260 C.3   281  ASP281      0.1450
     91  CG         8.6580   25.1630   21.3410 C.2   281  ASP281      0.3671
     92  OD1        8.0440   24.5510   22.2510 O.co2 281  ASP281     -0.2456
     93  OD2        8.3220   25.1290   20.1320 O.co2 281  ASP281     -0.2456
     94  N         10.7250   28.1170   19.6270 N.am  282  TRP282     -0.1974
     95  CA        10.9710   28.4780   18.2540 C.3   282  TRP282      0.1640
     96  C         12.1230   27.5570   17.8510 C.2   282  TRP282      0.2290
     97  O         13.0240   27.2720   18.6250 O.2   282  TRP282     -0.2864
     98  CB        11.5060   29.9320   18.1760 C.3   282  TRP282      0.0576
     99  CG        12.0750   30.2800   16.8110 C.ar  282  TRP282      0.0006
    100  CD1       11.3540   30.6590   15.7020 C.ar  282  TRP282      0.0946
    101  CD2       13.4480   30.2550   16.4140 C.ar  282  TRP282      0.0152
    102  NE1       12.2040   30.8290   14.6420 N.ar  282  TRP282     -0.2442
    103  CE2       13.4960   30.6430   15.0680 C.ar  282  TRP282      0.0810
    104  CE3       14.6590   29.9400   17.0810 C.ar  282  TRP282      0.0012
    105  CZ2       14.6920   30.7230   14.3520 C.ar  282  TRP282      0.0191
    106  CZ3       15.8750   30.0260   16.3520 C.ar  282  TRP282      0.0001
    107  CH2       15.8690   30.4210   15.0100 C.ar  282  TRP282      0.0015
    108  N         11.1010   26.5650    9.6680 N.3   301  ARG301     -0.1245
    109  CA        10.9940   27.1270   11.0030 C.3   301  ARG301      0.1563
    110  C          9.7260   26.8250   11.6180 C.2   301  ARG301      0.2260
    111  O          8.7110   26.6570   10.9380 O.2   301  ARG301     -0.2867
    112  CB        11.0650   28.6640   10.9490 C.3   301  ARG301      0.0307
    113  CG        12.5160   29.1090   10.6500 C.3   301  ARG301      0.0489
    114  CD        12.6880   29.6440    9.2470 C.3   301  ARG301      0.2205
    115  NE        11.7330   30.7120    8.9750 N.pl3 301  ARG301     -0.0865
    116  CZ        11.3010   31.0610    7.7590 C.cat 301  ARG301      0.5346
    117  NH1       11.7510   30.4410    6.6530 N.pl3 301  ARG301      0.1354
    118  NH2       10.3870   32.0280    7.6640 N.pl3 301  ARG301      0.1354
    119  N          7.2990   27.9980   15.2050 N.3   303  THR303     -0.1218
    120  CA         7.0500   28.5750   16.5150 C.3   303  THR303      0.1862
    121  C          5.8320   27.9010   17.0950 C.2   303  THR303      0.2287
    122  O          4.7940   27.7600   16.4130 O.2   303  THR303     -0.2866
    123  CB         6.8730   30.1290   16.4460 C.3   303  THR303      0.1770
    124  OG1        7.9660   30.6680   15.6720 O.3   303  THR303     -0.2211
    125  CG2        6.9720   30.6750   17.8220 C.3   303  THR303      0.0375
    126  N          3.2120   27.0900   14.4250 N.3   326  ASP326     -0.1239
    127  CA         3.2570   27.7740   13.1230 C.3   326  ASP326      0.1674
    128  C          4.4840   27.3790   12.3500 C.2   326  ASP326      0.2266
    129  O          5.6260   27.7830   12.7030 O.2   326  ASP326     -0.2867
    130  CB         3.2820   29.2940   13.3280 C.3   326  ASP326      0.1410
    131  CG         3.2540   30.0820   12.0120 C.2   326  ASP326      0.3668
    132  OD1        3.4490   29.4800   10.9200 O.co2 326  ASP326     -0.2456
    133  OD2        3.1010   31.3260   12.0770 O.co2 326  ASP326     -0.2456
@<TRIPOS>BOND
     1   117   116    1
     2   118   116    1
     3   116   115    2
     4   115   114    1
     5   114   113    1
     6   108   109    1
     7   113   112    1
     8   132   131   ar
     9   111   110    2
    10   112   109    1
    11   109   110    1
    12   131   133   ar
    13   131   130    1
    14   128   129    2
    15   128   127    1
    16   127   130    1
    17   127   126    1
    18   105   107   ar
    19   105   103   ar
    20   102   103   ar
    21   102   100   ar
    22   107   106   ar
    23   103   101   ar
    24   119   120    1
    25   124   123    1
    26   100    99   ar
    27   106   104   ar
    28   122   121    2
    29   101    99   ar
    30   101   104   ar
    31   123   120    1
    32   123   125    1
    33   120   121    1
    34    99    98    1
    35    96    95    1
    36    96    97    2
    37    98    95    1
    38    95    94    1
    39    89    88    2
    40    94    88   am
    41    88    87    1
    42    93    91   ar
    43    58    59    1
    44    64    62    1
    45    91    90    1
    46    91    92   ar
    47    87    90    1
    48    87    86    1
    49    62    59    1
    50    62    63    1
    51    61    60    2
    52    59    60    1
    53    86    81   am
    54    85    83    1
    55    81    80    1
    56    81    82    2
    57    83    80    1
    58    83    84    1
    59    80    79    1
    60    65    66    1
    61    57    55    1
    62    68    67    2
    63    69    66    1
    64    69    70    1
    65    66    67    1
    66    75    77   ar
    67    75    72   ar
    68    55    56    1
    69    55    54    1
    70    70    72   ar
    71    70    71   ar
    72    52    51    1
    73    52    53    2
    74    77    78   ar
    75    72    74   ar
    76    51    54    1
    77    51    50    1
    78    49    47   am
    79    71    73   ar
    80    44    43    2
    81    78    76   ar
    82    74    73   ar
    83    74    76   ar
    84    50    43   am
    85    43    42    1
    86    47    46    1
    87    47    48    2
    88    46    45    1
    89    15    16    1
    90    45    42    1
    91    42    41    1
    92    41    37   am
    93    18    17    2
    94    19    20    1
    95    19    16    1
    96    20    21    1
    97    20    22    1
    98    16    17    1
    99    40    39    1
   100    37    36    1
   101    37    38    2
   102    36    39    1
   103    36    35    1
   104    13    14   ar
   105    13    11   ar
   106    14    12   ar
   107    23    24    1
   108    11     8   ar
   109    27    24    1
   110    27    28    1
   111    12    10   ar
   112    26    25    2
   113    24    25    1
   114     8    10   ar
   115     8     6   ar
   116    10     9   ar
   117    28    30   ar
   118    28    29   ar
   119    30    32   ar
   120     3     2    1
   121     3     4    2
   122     6     5    1
   123     6     7   ar
   124     5     2    1
   125     2     1    1
   126    29    31   ar
   127     9     7   ar
   128    32    33   ar
   129    31    33   ar
   130    33    34    1
