@<TRIPOS>MOLECULE
tmp/2gufA12.pdb
 128 123 0 0 0
SMALL
GASTEIGER

@<TRIPOS>ATOM
      1  N         35.0990    8.5620   38.1280 N.3   132  THR132     -0.1218
      2  CA        35.7410    8.3320   36.8680 C.3   132  THR132      0.1862
      3  C         35.6530    6.8750   36.5170 C.2   132  THR132      0.2287
      4  O         35.9450    6.0160   37.3390 O.2   132  THR132     -0.2866
      5  CB        37.1710    8.7210   36.9780 C.3   132  THR132      0.1770
      6  OG1       37.1980   10.0660   37.4290 O.3   132  THR132     -0.2211
      7  CG2       37.8800    8.6270   35.6520 C.3   132  THR132      0.0375
      8  N         36.4330    6.9020   28.4330 N.3   148  VAL148     -0.1245
      9  CA        36.7910    7.5480   29.6830 C.3   148  VAL148      0.1561
     10  C         35.7020    8.6110   29.9570 C.2   148  VAL148      0.2260
     11  O         35.3110    9.3670   29.0510 O.2   148  VAL148     -0.2867
     12  CB        38.2040    8.1990   29.5550 C.3   148  VAL148      0.0252
     13  CG1       38.2420    9.2590   28.4360 C.3   148  VAL148      0.0019
     14  CG2       38.7090    8.7530   30.8850 C.3   148  VAL148      0.0019
     15  N         34.3430   11.2270   33.4620 N.3   150  THR150     -0.1218
     16  CA        34.5650   11.6630   34.8050 C.3   150  THR150      0.1862
     17  C         33.5160   12.6980   35.0450 C.2   150  THR150      0.2287
     18  O         33.0400   13.3310   34.1000 O.2   150  THR150     -0.2866
     19  CB        35.9580   12.2840   35.0180 C.3   150  THR150      0.1770
     20  OG1       36.2020   12.3970   36.4250 O.3   150  THR150     -0.2211
     21  CG2       36.0510   13.6970   34.4040 C.3   150  THR150      0.0375
     22  N         32.9160   15.4900   38.2040 N.3   152  GLN152     -0.1245
     23  CA        33.6230   16.0280   39.3780 C.3   152  GLN152      0.1566
     24  C         32.8580   17.2390   39.8730 C.2   152  GLN152      0.2260
     25  O         32.3280   18.0260   39.0570 O.2   152  GLN152     -0.2867
     26  CB        35.0370   16.4780   39.0060 C.3   152  GLN152      0.0367
     27  CG        35.9360   15.4240   38.3900 C.3   152  GLN152      0.0905
     28  CD        36.2920   14.3200   39.3570 C.2   152  GLN152      0.2608
     29  OE1       36.2000   13.1390   39.0270 O.2   152  GLN152     -0.2717
     30  NE2       36.6830   14.6940   40.5690 N.am  152  GLN152     -0.0878
     31  N         32.7900   15.0250   31.8100 N.3   162  LEU162     -0.1231
     32  CA        33.5410   14.9490   30.5460 C.3   162  LEU162      0.1693
     33  C         33.5430   13.5140   30.1020 C.2   162  LEU162      0.2592
     34  O         33.6960   12.6420   30.9170 O.2   162  LEU162     -0.2718
     35  CB        35.0030   15.3640   30.7560 C.3   162  LEU162      0.0284
     36  CG        35.1830   16.8120   31.1870 C.3   162  LEU162      0.0019
     37  CD1       36.6190   17.0700   31.5580 C.3   162  LEU162      0.0001
     38  CD2       34.7400   17.7590   30.0990 C.3   162  LEU162      0.0001
     39  N         33.4310   13.2600   28.8100 N.am  163  LEU163     -0.1966
     40  CA        33.4040   11.9020   28.3450 C.3   163  LEU163      0.1728
     41  C         34.0800   11.8900   26.9870 C.2   163  LEU163      0.2616
     42  O         33.9130   12.8360   26.1970 O.2   163  LEU163     -0.2715
     43  CB        31.9290   11.4070   28.2570 C.3   163  LEU163      0.0311
     44  CG        31.7570   10.0010   27.6720 C.3   163  LEU163      0.0022
     45  CD1       30.5490    9.2980   28.2350 C.3   163  LEU163      0.0001
     46  CD2       31.6610   10.0430   26.1380 C.3   163  LEU163      0.0001
     47  N         34.8340   10.8360   26.7100 N.am  164  GLY164     -0.1955
     48  CA        35.3430   10.6140   25.3580 C.3   164  GLY164      0.1869
     49  C         35.1440    9.1600   25.0370 C.2   164  GLY164      0.2309
     50  O         35.2350    8.3070   25.9380 O.2   164  GLY164     -0.2863
     51  N         33.0490   13.1550   21.8740 N.3   178  LEU178     -0.1231
     52  CA        33.4780   13.9380   23.0220 C.3   178  LEU178      0.1693
     53  C         32.2440   14.5830   23.6110 C.2   178  LEU178      0.2592
     54  O         31.3180   14.9000   22.8830 O.2   178  LEU178     -0.2718
     55  CB        34.4190   15.0200   22.5270 C.3   178  LEU178      0.0284
     56  CG        35.8960   15.1940   22.8720 C.3   178  LEU178      0.0019
     57  CD1       36.7790   13.9420   23.3150 C.3   178  LEU178      0.0001
     58  CD2       36.5110   16.0020   21.6830 C.3   178  LEU178      0.0001
     59  N         32.2300   14.7960   24.9160 N.am  179  TYR179     -0.1962
     60  CA        31.0490   15.3630   25.5740 C.3   179  TYR179      0.1771
     61  C         31.5320   16.0910   26.8130 C.2   179  TYR179      0.2620
     62  O         32.3070   15.5330   27.5730 O.2   179  TYR179     -0.2715
     63  CB        30.0810   14.2390   25.9620 C.3   179  TYR179      0.0574
     64  CG        29.0100   14.6460   26.9320 C.ar  179  TYR179     -0.0198
     65  CD1       29.2810   14.8580   28.3120 C.ar  179  TYR179     -0.0009
     66  CD2       27.6910   14.8310   26.4700 C.ar  179  TYR179     -0.0009
     67  CE1       28.2300   15.2520   29.2070 C.ar  179  TYR179      0.0417
     68  CE2       26.6900   15.1740   27.3230 C.ar  179  TYR179      0.0417
     69  CZ        26.9500   15.3880   28.6670 C.ar  179  TYR179      0.1957
     70  OH        25.8370   15.7480   29.4120 O.3   179  TYR179     -0.2866
     71  N         31.0940   17.3300   27.0020 N.am  180  GLY180     -0.1954
     72  CA        31.3550   18.0710   28.2560 C.3   180  GLY180      0.1869
     73  C         30.0640   18.7620   28.6990 C.2   180  GLY180      0.2309
     74  O         29.3230   19.2630   27.8510 O.2   180  GLY180     -0.2863
     75  N         28.0530   20.5640   25.7060 N.3   196  GLY196     -0.1210
     76  CA        28.4170   20.4960   24.3190 C.3   196  GLY196      0.1956
     77  C         28.8780   19.0970   24.0650 C.2   196  GLY196      0.2612
     78  O         29.5730   18.4840   24.8930 O.2   196  GLY196     -0.2717
     79  N         28.5350   18.5760   22.9110 N.am  197  TYR197     -0.1962
     80  CA        29.1660   17.3440   22.4930 C.3   197  TYR197      0.1771
     81  C         29.1530   17.2030   20.9770 C.2   197  TYR197      0.2620
     82  O         28.4010   17.8860   20.2580 O.2   197  TYR197     -0.2715
     83  CB        28.4810   16.1480   23.1260 C.3   197  TYR197      0.0574
     84  CG        27.0580   16.1130   22.7780 C.ar  197  TYR197     -0.0198
     85  CD1       26.6320   15.4690   21.6510 C.ar  197  TYR197     -0.0009
     86  CD2       26.1250   16.7560   23.5830 C.ar  197  TYR197     -0.0009
     87  CE1       25.2850   15.4630   21.3160 C.ar  197  TYR197      0.0417
     88  CE2       24.7890   16.7440   23.2590 C.ar  197  TYR197      0.0417
     89  CZ        24.4020   16.0990   22.1420 C.ar  197  TYR197      0.1957
     90  OH        23.0880   16.1070   21.8330 O.3   197  TYR197     -0.2866
     91  N         29.9420   16.2490   20.5130 N.am  198  GLY198     -0.1954
     92  CA        29.9960   15.9950   19.1000 C.3   198  GLY198      0.1869
     93  C         30.5890   14.6290   18.8420 C.2   198  GLY198      0.2309
     94  O         31.1290   13.9680   19.7450 O.2   198  GLY198     -0.2863
     95  N         28.0380   18.3250   15.8950 N.3   213  GLN213     -0.1245
     96  CA        28.1900   18.9910   17.1800 C.3   213  GLN213      0.1566
     97  C         26.8810   19.5440   17.6260 C.2   213  GLN213      0.2260
     98  O         26.0340   19.9090   16.8200 O.2   213  GLN213     -0.2867
     99  CB        29.1730   20.1460   17.0930 C.3   213  GLN213      0.0367
    100  CG        30.5880   19.7290   16.8430 C.3   213  GLN213      0.0905
    101  CD        31.5590   20.3020   17.9030 C.2   213  GLN213      0.2608
    102  OE1       31.7350   21.5410   17.9960 O.2   213  GLN213     -0.2717
    103  NE2       32.1810   19.4020   18.7230 N.am  213  GLN213     -0.0878
    104  N         25.3410   21.9900   20.9110 N.3   215  TRP215     -0.1241
    105  CA        25.5790   22.8040   22.1180 C.3   215  TRP215      0.1605
    106  C         24.2470   23.2200   22.7610 C.2   215  TRP215      0.2264
    107  O         23.3030   23.5930   22.0580 O.2   215  TRP215     -0.2867
    108  CB        26.3600   24.0510   21.7430 C.3   215  TRP215      0.0550
    109  CG        27.6560   23.7310   21.2250 C.ar  215  TRP215      0.0003
    110  CD1       27.9940   23.5000   19.9150 C.ar  215  TRP215      0.0946
    111  CD2       28.8590   23.5670   21.9910 C.ar  215  TRP215      0.0152
    112  NE1       29.3420   23.2190   19.8220 N.ar  215  TRP215     -0.2442
    113  CE2       29.8940   23.2440   21.0790 C.ar  215  TRP215      0.0810
    114  CE3       29.1560   23.6530   23.3580 C.ar  215  TRP215      0.0012
    115  CZ2       31.2190   23.0210   21.4900 C.ar  215  TRP215      0.0191
    116  CZ3       30.4800   23.4370   23.7810 C.ar  215  TRP215      0.0001
    117  CH2       31.4950   23.1180   22.8440 C.ar  215  TRP215      0.0015
    118  N         36.9370    4.4800   39.5340 N.3   551  PHE551     -0.1241
    119  CA        37.9490    4.9470   40.4730 C.3   551  PHE551      0.1605
    120  C         37.3960    5.0940   41.8750 C.2   551  PHE551      0.2264
    121  O         36.1740    5.0320   42.0690 O.2   551  PHE551     -0.2867
    122  CB        38.5870    6.2460   39.9850 C.3   551  PHE551      0.0534
    123  CG        39.6010    6.0240   38.9280 C.ar  551  PHE551     -0.0203
    124  CD1       39.2170    5.6560   37.6520 C.ar  551  PHE551     -0.0042
    125  CD2       40.9500    6.1200   39.2130 C.ar  551  PHE551     -0.0042
    126  CE1       40.1390    5.4070   36.6700 C.ar  551  PHE551     -0.0003
    127  CE2       41.8940    5.8710   38.2300 C.ar  551  PHE551     -0.0003
    128  CZ        41.4760    5.5170   36.9440 C.ar  551  PHE551     -0.0000
@<TRIPOS>BOND
     1    95    96    1
     2    98    97    2
     3   100    99    1
     4   100   101    1
     5    99    96    1
     6    96    97    1
     7   101   102    2
     8   101   103   am
     9    93    92    1
    10    93    94    2
    11    92    91    1
    12   112   110   ar
    13   112   113   ar
    14   110   109   ar
    15    82    81    2
    16    91    81   am
    17   104   105    1
    18    81    80    1
    19   113   115   ar
    20   113   111   ar
    21   109   108    1
    22   109   111   ar
    23    87    85   ar
    24    87    89   ar
    25   115   117   ar
    26    85    84   ar
    27    58    56    1
    28   108   105    1
    29    90    89    1
    30    51    52    1
    31   111   114   ar
    32   107   106    2
    33   105   106    1
    34    89    88   ar
    35    80    79    1
    36    80    83    1
    37    55    56    1
    38    55    52    1
    39    84    83    1
    40    84    86   ar
    41   117   116   ar
    42    56    57    1
    43    54    53    2
    44    79    77   am
    45    52    53    1
    46    88    86   ar
    47   114   116   ar
    48    53    59   am
    49    77    76    1
    50    77    78    2
    51    76    75    1
    52    59    60    1
    53    49    48    1
    54    49    50    2
    55    48    47    1
    56    60    63    1
    57    60    61    1
    58    63    64    1
    59    46    44    1
    60    42    41    2
    61    66    64   ar
    62    66    68   ar
    63    47    41   am
    64    61    71   am
    65    61    62    2
    66    64    65   ar
    67    41    40    1
    68    71    72    1
    69    68    69   ar
    70    44    45    1
    71    44    43    1
    72    74    73    2
    73    72    73    1
    74    43    40    1
    75    65    67   ar
    76    40    39    1
    77     8     9    1
    78    13    12    1
    79    69    67   ar
    80    69    70    1
    81    39    33   am
    82    11    10    2
    83    12     9    1
    84    12    14    1
    85     9    10    1
    86    38    36    1
    87    33    32    1
    88    33    34    2
    89    32    35    1
    90    32    31    1
    91    35    36    1
    92    36    37    1
    93    15    16    1
    94    18    17    2
    95    21    19    1
    96    16    19    1
    97    16    17    1
    98    19    20    1
    99     7     5    1
   100     3     2    1
   101     3     4    2
   102   126   128   ar
   103   126   124   ar
   104     2     5    1
   105     2     1    1
   106   128   127   ar
   107     5     6    1
   108   124   123   ar
   109    22    23    1
   110   127   125   ar
   111    27    26    1
   112    27    28    1
   113   123   125   ar
   114   123   122    1
   115    26    23    1
   116    29    28    2
   117    25    24    2
   118    28    30   am
   119    23    24    1
   120   118   119    1
   121   122   119    1
   122   119   120    1
   123   120   121    2
