@<TRIPOS>MOLECULE
tmp/2gufA00.pdb
 109 107 0 0 0
SMALL
GASTEIGER

@<TRIPOS>ATOM
      1  N         -0.3060   22.8260   36.2720 N.3   276  ILE276     -0.1245
      2  CA        -0.5530   23.3160   34.9300 C.3   276  ILE276      0.1561
      3  C          0.7340   23.8930   34.3830 C.2   276  ILE276      0.2260
      4  O          1.6000   24.2590   35.1260 O.2   276  ILE276     -0.2867
      5  CB        -1.6520   24.3590   34.8760 C.3   276  ILE276      0.0252
      6  CG1       -1.3100   25.5890   35.7060 C.3   276  ILE276      0.0019
      7  CG2       -2.9720   23.7340   35.3120 C.3   276  ILE276      0.0019
      8  CD1       -2.5570   26.4760   35.8630 C.3   276  ILE276      0.0001
      9  N         -1.9680   20.3050   31.5560 N.3   309  GLY309     -0.1210
     10  CA        -2.5350   20.2600   32.8970 C.3   309  GLY309      0.1956
     11  C         -2.5460   18.8260   33.3980 C.2   309  GLY309      0.2612
     12  O         -2.6840   17.9160   32.5900 O.2   309  GLY309     -0.2717
     13  N         -2.3710   18.6410   34.7100 N.am  310  LEU310     -0.1965
     14  CA        -2.5400   17.3420   35.3690 C.3   310  LEU310      0.1728
     15  C         -3.3430   17.6040   36.6390 C.2   310  LEU310      0.2616
     16  O         -2.9780   18.4800   37.4070 O.2   310  LEU310     -0.2715
     17  CB        -1.1900   16.8450   35.8070 C.3   310  LEU310      0.0311
     18  CG        -0.7650   15.3740   35.9010 C.3   310  LEU310      0.0022
     19  CD1        0.5180   15.2960   36.7560 C.3   310  LEU310      0.0001
     20  CD2       -1.8270   14.4860   36.4170 C.3   310  LEU310      0.0001
     21  N         -4.4210   16.8840   36.8700 N.am  311  GLN311     -0.1977
     22  CA        -5.1360   17.0190   38.1540 C.3   311  GLN311      0.1601
     23  C         -5.6370   15.6890   38.6520 C.2   311  GLN311      0.2287
     24  O         -6.1760   14.9210   37.8930 O.2   311  GLN311     -0.2864
     25  CB        -6.3560   17.9420   38.0430 C.3   311  GLN311      0.0394
     26  CG        -6.0230   19.4330   38.1280 C.3   311  GLN311      0.0908
     27  CD        -5.4830   19.8090   39.5070 C.2   311  GLN311      0.2608
     28  OE1       -6.1430   19.6280   40.5480 O.2   311  GLN311     -0.2717
     29  NE2       -4.2880   20.3270   39.5120 N.am  311  GLN311     -0.0878
     30  N         -6.9620   13.4030   35.6630 N.3   318  PHE318     -0.1227
     31  CA        -7.1670   13.9750   34.3300 C.3   318  PHE318      0.1736
     32  C         -5.8690   14.6340   33.8800 C.2   318  PHE318      0.2595
     33  O         -5.2320   15.2770   34.6720 O.2   318  PHE318     -0.2718
     34  CB        -8.2490   14.9940   34.4210 C.3   318  PHE318      0.0547
     35  CG        -9.5490   14.4380   34.9730 C.ar  318  PHE318     -0.0202
     36  CD1       -9.8730   14.5970   36.3080 C.ar  318  PHE318     -0.0042
     37  CD2      -10.3840   13.6820   34.1680 C.ar  318  PHE318     -0.0042
     38  CE1      -11.0860   14.0510   36.8300 C.ar  318  PHE318     -0.0003
     39  CE2      -11.5980   13.1290   34.6840 C.ar  318  PHE318     -0.0003
     40  CZ       -11.9300   13.3200   36.0070 C.ar  318  PHE318     -0.0000
     41  N         -5.5070   14.5200   32.6120 N.am  319  GLU319     -0.1965
     42  CA        -4.2330   15.0130   32.1340 C.3   319  GLU319      0.1733
     43  C         -4.6000   15.5050   30.7400 C.2   319  GLU319      0.2616
     44  O         -5.4150   14.8790   30.0450 O.2   319  GLU319     -0.2715
     45  CB        -3.2390   13.8470   32.0690 C.3   319  GLU319      0.0429
     46  CG        -1.7260   14.2450   31.9280 C.3   319  GLU319      0.1163
     47  CD        -0.7450   13.0240   31.8220 C.2   319  GLU319      0.3649
     48  OE1       -1.1870   11.8900   32.1440 O.co2 319  GLU319     -0.2457
     49  OE2        0.4600   13.2060   31.3860 O.co2 319  GLU319     -0.2457
     50  N         -4.0370   16.6560   30.3360 N.am  320  GLY320     -0.1955
     51  CA        -4.2530   17.1710   28.9940 C.3   320  GLY320      0.1869
     52  C         -3.1100   18.0250   28.5180 C.2   320  GLY320      0.2309
     53  O         -2.2640   18.4430   29.3050 O.2   320  GLY320     -0.2863
     54  N         -4.0280   18.3670   20.3400 N.3   336  TRP336     -0.1241
     55  CA        -4.4420   18.3190   21.7270 C.3   336  TRP336      0.1605
     56  C         -4.6330   16.8500   22.1250 C.2   336  TRP336      0.2264
     57  O         -4.7010   15.9890   21.2570 O.2   336  TRP336     -0.2867
     58  CB        -5.7180   19.1100   21.9670 C.3   336  TRP336      0.0550
     59  CG        -6.9470   18.5060   21.3450 C.ar  336  TRP336      0.0003
     60  CD1       -7.3040   18.5150   20.0190 C.ar  336  TRP336      0.0946
     61  CD2       -7.9640   17.7770   22.0280 C.ar  336  TRP336      0.0152
     62  NE1       -8.5160   17.8700   19.8480 N.ar  336  TRP336     -0.2442
     63  CE2       -8.9230   17.3910   21.0680 C.ar  336  TRP336      0.0810
     64  CE3       -8.1610   17.4140   23.3640 C.ar  336  TRP336      0.0012
     65  CZ2      -10.0670   16.6600   21.4080 C.ar  336  TRP336      0.0191
     66  CZ3       -9.3250   16.6760   23.6980 C.ar  336  TRP336      0.0001
     67  CH2      -10.2420   16.3190   22.7210 C.ar  336  TRP336      0.0015
     68  N         -6.0120   14.3430   25.7250 N.3   338  THR338     -0.1218
     69  CA        -6.4900   14.2640   27.0810 C.3   338  THR338      0.1862
     70  C         -6.4930   12.7680   27.4690 C.2   338  THR338      0.2287
     71  O         -6.7070   11.9220   26.6250 O.2   338  THR338     -0.2866
     72  CB        -7.8930   14.9280   27.2300 C.3   338  THR338      0.1770
     73  OG1       -8.2300   14.9890   28.6100 O.3   338  THR338     -0.2211
     74  CG2       -8.9530   14.1590   26.5110 C.3   338  THR338      0.0375
     75  N         -7.2920   10.2180   24.4230 N.3   354  TYR354     -0.1241
     76  CA        -7.5030   10.6230   23.0350 C.3   354  TYR354      0.1605
     77  C         -6.4980   11.7130   22.7000 C.2   354  TYR354      0.2264
     78  O         -6.1640   12.5420   23.5570 O.2   354  TYR354     -0.2867
     79  CB        -8.9180   11.1330   22.8240 C.3   354  TYR354      0.0534
     80  CG        -9.1220   11.6970   21.4190 C.ar  354  TYR354     -0.0201
     81  CD1       -9.2660   10.8320   20.3130 C.ar  354  TYR354     -0.0009
     82  CD2       -9.0740   13.0860   21.1810 C.ar  354  TYR354     -0.0009
     83  CE1       -9.4310   11.3400   18.9940 C.ar  354  TYR354      0.0417
     84  CE2       -9.2170   13.6020   19.8730 C.ar  354  TYR354      0.0417
     85  CZ        -9.4090   12.7210   18.8090 C.ar  354  TYR354      0.1957
     86  OH        -9.5460   13.2090   17.5380 O.3   354  TYR354     -0.2866
     87  N         -5.2270   10.8380   14.5800 N.3   381  LYS381     -0.1245
     88  CA        -6.1930   10.8250   15.6760 C.3   381  LYS381      0.1561
     89  C         -5.9670    9.4610   16.3520 C.2   381  LYS381      0.2260
     90  O         -5.9820    8.4450   15.6650 O.2   381  LYS381     -0.2867
     91  CB        -7.6540   10.8920   15.1630 C.3   381  LYS381      0.0271
     92  CG        -8.0990   12.2610   14.6140 C.3   381  LYS381      0.0035
     93  CD        -9.5760   12.2340   14.2280 C.3   381  LYS381      0.0206
     94  CE       -10.0450   13.6760   13.9060 C.3   381  LYS381      0.1093
     95  NZ       -10.4710   14.4310   15.1870 N.3   381  LYS381     -0.1314
     96  N         -6.9450    6.8530   19.7880 N.3   383  TRP383     -0.1241
     97  CA        -7.7050    6.5390   20.9690 C.3   383  TRP383      0.1605
     98  C         -7.0080    5.4040   21.6020 C.2   383  TRP383      0.2264
     99  O         -6.6010    4.4980   20.8960 O.2   383  TRP383     -0.2867
    100  CB        -9.0910    5.9960   20.5690 C.3   383  TRP383      0.0550
    101  CG        -9.9350    6.9730   19.8220 C.ar  383  TRP383      0.0003
    102  CD1      -11.0000    7.7250   20.3340 C.ar  383  TRP383      0.0946
    103  CD2       -9.8630    7.2810   18.4130 C.ar  383  TRP383      0.0152
    104  NE1      -11.5630    8.4630   19.3060 N.ar  383  TRP383     -0.2442
    105  CE2      -10.8870    8.2210   18.1340 C.ar  383  TRP383      0.0810
    106  CE3       -9.0370    6.8430   17.3530 C.ar  383  TRP383      0.0012
    107  CZ2      -11.0930    8.7570   16.8300 C.ar  383  TRP383      0.0191
    108  CZ3       -9.2480    7.3610   16.0490 C.ar  383  TRP383      0.0001
    109  CH2      -10.2850    8.3120   15.8060 C.ar  383  TRP383      0.0015
@<TRIPOS>BOND
     1    94    93    1
     2    94    95    1
     3    93    92    1
     4    87    88    1
     5    92    91    1
     6    91    88    1
     7    90    89    2
     8    88    89    1
     9   109   108   ar
    10   109   107   ar
    11   108   106   ar
    12   107   105   ar
    13   106   103   ar
    14    86    85    1
    15   105   103   ar
    16   105   104   ar
    17   103   101   ar
    18    85    83   ar
    19    85    84   ar
    20    83    81   ar
    21   104   102   ar
    22    96    97    1
    23   101   102   ar
    24   101   100    1
    25    62    60   ar
    26    62    63   ar
    27    84    82   ar
    28    60    59   ar
    29    81    80   ar
    30    54    55    1
    31   100    97    1
    32    99    98    2
    33    97    98    1
    34    63    65   ar
    35    63    61   ar
    36    82    80   ar
    37    57    56    2
    38    59    58    1
    39    59    61   ar
    40    65    67   ar
    41    80    79    1
    42    55    58    1
    43    55    56    1
    44    61    64   ar
    45    77    76    1
    46    77    78    2
    47    67    66   ar
    48    79    76    1
    49    76    75    1
    50    64    66   ar
    51    68    69    1
    52    74    72    1
    53    71    70    2
    54    69    72    1
    55    69    70    1
    56    72    73    1
    57    52    51    1
    58    52    53    2
    59    51    50    1
    60    44    43    2
    61    50    43   am
    62    43    42    1
    63    49    47   ar
    64     9    10    1
    65    47    46    1
    66    47    48   ar
    67    46    45    1
    68    45    42    1
    69    42    41    1
    70    12    11    2
    71    41    32   am
    72    10    11    1
    73    11    13   am
    74    32    31    1
    75    32    33    2
    76    37    39   ar
    77    37    35   ar
    78    31    34    1
    79    31    30    1
    80     3     2    1
    81     3     4    2
    82    34    35    1
    83    39    40   ar
    84    13    14    1
    85     5     2    1
    86     5     7    1
    87     5     6    1
    88     2     1    1
    89    35    36   ar
    90    14    17    1
    91    14    15    1
    92     6     8    1
    93    17    18    1
    94    18    20    1
    95    18    19    1
    96    40    38   ar
    97    36    38   ar
    98    15    21   am
    99    15    16    2
   100    21    22    1
   101    24    23    2
   102    25    26    1
   103    25    22    1
   104    26    27    1
   105    22    23    1
   106    27    29   am
   107    27    28    2
