@<TRIPOS>MOLECULE
tmp/2gufA06.pdb
 171 167 0 0 0
SMALL
GASTEIGER

@<TRIPOS>ATOM
      1  N         36.7120    4.0870   33.4280 N.3   134  ILE134     -0.1231
      2  CA        37.4060    3.7160   32.2030 C.3   134  ILE134      0.1692
      3  C         36.7840    2.3890   31.7540 C.2   134  ILE134      0.2593
      4  O         36.6270    1.4740   32.5670 O.2   134  ILE134     -0.2718
      5  CB        38.9060    3.5450   32.4760 C.3   134  ILE134      0.0266
      6  CG1       39.4420    4.7900   33.1470 C.3   134  ILE134      0.0019
      7  CG2       39.6830    3.3280   31.2030 C.3   134  ILE134      0.0020
      8  CD1       40.9140    4.6460   33.5190 C.3   134  ILE134      0.0001
      9  N         36.3830    2.3050   30.4840 N.am  135  SER135     -0.1938
     10  CA        35.7060    1.1340   29.9440 C.3   135  SER135      0.2055
     11  C         36.3460    0.8100   28.6380 C.2   135  SER135      0.2642
     12  O         36.9170    1.6750   27.9670 O.2   135  SER135     -0.2714
     13  CB        34.2400    1.4300   29.6180 C.3   135  SER135      0.2130
     14  OG        33.5580    1.9160   30.7590 O.3   135  SER135     -0.2179
     15  N         36.2140   -0.4380   28.2430 N.am  136  ALA136     -0.1977
     16  CA        36.6250   -0.8420   26.9240 C.3   136  ALA136      0.1597
     17  C         36.0360   -2.1790   26.6330 C.2   136  ALA136      0.2287
     18  O         35.7590   -2.9560   27.5510 O.2   136  ALA136     -0.2864
     19  CB        38.1000   -0.9300   26.8440 C.3   136  ALA136      0.0319
     20  N         35.7200   -5.4230   23.3740 N.3   138  TRP138     -0.1241
     21  CA        36.1840   -5.9890   22.1250 C.3   138  TRP138      0.1605
     22  C         35.1670   -7.0110   21.7740 C.2   138  TRP138      0.2264
     23  O         34.4410   -7.4440   22.6290 O.2   138  TRP138     -0.2867
     24  CB        37.5730   -6.5890   22.3000 C.3   138  TRP138      0.0550
     25  CG        38.4730   -5.5640   22.8790 C.ar  138  TRP138      0.0003
     26  CD1       39.3050   -4.7100   22.1910 C.ar  138  TRP138      0.0946
     27  CD2       38.5920   -5.2060   24.2780 C.ar  138  TRP138      0.0152
     28  NE1       39.9510   -3.8630   23.0780 N.ar  138  TRP138     -0.2442
     29  CE2       39.5330   -4.1430   24.3600 C.ar  138  TRP138      0.0810
     30  CE3       38.0040   -5.6930   25.4750 C.ar  138  TRP138      0.0012
     31  CZ2       39.9090   -3.5600   25.5970 C.ar  138  TRP138      0.0191
     32  CZ3       38.3740   -5.1040   26.7090 C.ar  138  TRP138      0.0001
     33  CH2       39.3200   -4.0560   26.7510 C.ar  138  TRP138      0.0015
     34  N         36.5190    2.0940   23.5110 N.3   146  TYR146     -0.1227
     35  CA        37.3010    2.6420   24.6240 C.3   146  TYR146      0.1736
     36  C         36.5930    3.8980   25.0770 C.2   146  TYR146      0.2595
     37  O         36.1690    4.6860   24.2480 O.2   146  TYR146     -0.2718
     38  CB        38.7220    2.9990   24.1880 C.3   146  TYR146      0.0548
     39  CG        39.4340    1.8360   23.5490 C.ar  146  TYR146     -0.0200
     40  CD1       39.5020    1.7070   22.1600 C.ar  146  TYR146     -0.0009
     41  CD2       39.9750    0.8240   24.3370 C.ar  146  TYR146     -0.0009
     42  CE1       40.1080    0.5990   21.5750 C.ar  146  TYR146      0.0417
     43  CE2       40.5850   -0.2920   23.7600 C.ar  146  TYR146      0.0417
     44  CZ        40.6390   -0.3940   22.3830 C.ar  146  TYR146      0.1957
     45  OH        41.2430   -1.4920   21.8390 O.3   146  TYR146     -0.2866
     46  N         36.5140    4.1000   26.3820 N.am  147  ASP147     -0.1960
     47  CA        35.6920    5.1530   26.9510 C.3   147  ASP147      0.1840
     48  C         36.3000    5.5870   28.2660 C.2   147  ASP147      0.2621
     49  O         36.6990    4.7480   29.0660 O.2   147  ASP147     -0.2715
     50  CB        34.2700    4.5960   27.1550 C.3   147  ASP147      0.1450
     51  CG        33.2500    5.6520   27.5720 C.2   147  ASP147      0.3671
     52  OD1       33.2710    6.0620   28.7570 O.co2 147  ASP147     -0.2456
     53  OD2       32.4050    6.0660   26.7420 O.co2 147  ASP147     -0.2456
     54  N         36.4330    6.9020   28.4330 N.am  148  VAL148     -0.1977
     55  CA        36.7910    7.5480   29.6830 C.3   148  VAL148      0.1596
     56  C         35.7020    8.6110   29.9570 C.2   148  VAL148      0.2287
     57  O         35.3110    9.3670   29.0510 O.2   148  VAL148     -0.2864
     58  CB        38.2040    8.1990   29.5550 C.3   148  VAL148      0.0276
     59  CG1       38.2420    9.2590   28.4360 C.3   148  VAL148      0.0022
     60  CG2       38.7090    8.7530   30.8850 C.3   148  VAL148      0.0022
     61  N         34.8340   10.8360   26.7100 N.3   164  GLY164     -0.1210
     62  CA        35.3430   10.6140   25.3580 C.3   164  GLY164      0.1956
     63  C         35.1440    9.1600   25.0370 C.2   164  GLY164      0.2612
     64  O         35.2350    8.3070   25.9380 O.2   164  GLY164     -0.2717
     65  N         34.8690    8.8480   23.7840 N.am  165  ASP165     -0.1959
     66  CA        34.5440    7.4580   23.4440 C.3   165  ASP165      0.1840
     67  C         34.9940    7.1850   22.0440 C.2   165  ASP165      0.2622
     68  O         34.8720    8.0690   21.1820 O.2   165  ASP165     -0.2715
     69  CB        33.0410    7.1760   23.5870 C.3   165  ASP165      0.1450
     70  CG        32.6860    5.6950   23.3310 C.2   165  ASP165      0.3671
     71  OD1       32.6890    4.8850   24.2780 O.co2 165  ASP165     -0.2456
     72  OD2       32.3140    5.3630   22.1890 O.co2 165  ASP165     -0.2456
     73  N         35.6050    6.0050   21.8530 N.am  166  TYR166     -0.1974
     74  CA        36.0960    5.5770   20.5590 C.3   166  TYR166      0.1639
     75  C         35.3980    4.2630   20.3450 C.2   166  TYR166      0.2290
     76  O         35.4790    3.3820   21.1930 O.2   166  TYR166     -0.2864
     77  CB        37.6170    5.3870   20.5930 C.3   166  TYR166      0.0560
     78  CG        38.1830    4.7680   19.3350 C.ar  166  TYR166     -0.0198
     79  CD1       38.8430    5.5500   18.4040 C.ar  166  TYR166     -0.0009
     80  CD2       38.0850    3.3810   19.0990 C.ar  166  TYR166     -0.0009
     81  CE1       39.4150    4.9680   17.2460 C.ar  166  TYR166      0.0417
     82  CE2       38.5930    2.8110   17.9680 C.ar  166  TYR166      0.0417
     83  CZ        39.2630    3.6040   17.0460 C.ar  166  TYR166      0.1957
     84  OH        39.8020    3.0270   15.9370 O.3   166  TYR166     -0.2866
     85  N         33.6900    8.5410   16.9730 N.3   176  LYS176     -0.1231
     86  CA        34.4760    9.1790   18.0100 C.3   176  LYS176      0.1693
     87  C         33.6540   10.3150   18.5850 C.2   176  LYS176      0.2593
     88  O         33.1920   11.1750   17.8420 O.2   176  LYS176     -0.2718
     89  CB        35.7260    9.7350   17.3910 C.3   176  LYS176      0.0285
     90  CG        36.6580    8.6360   16.8340 C.3   176  LYS176      0.0035
     91  CD        37.9390    9.2130   16.2280 C.3   176  LYS176      0.0206
     92  CE        37.6540    9.7750   14.8430 C.3   176  LYS176      0.1093
     93  NZ        38.9530    9.7790   13.9900 N.3   176  LYS176     -0.1314
     94  N         33.4800   10.2950   19.8950 N.am  177  THR177     -0.1939
     95  CA        32.6320   11.2030   20.5420 C.3   177  THR177      0.2028
     96  C         33.3910   11.8870   21.6660 C.2   177  THR177      0.2642
     97  O         34.1880   11.2590   22.3590 O.2   177  THR177     -0.2714
     98  CB        31.5300   10.4280   21.2990 C.3   177  THR177      0.1808
     99  OG1       30.7880    9.6180   20.4050 O.3   177  THR177     -0.2208
    100  CG2       30.6840   11.3820   22.0420 C.3   177  THR177      0.0379
    101  N         33.0490   13.1550   21.8740 N.am  178  LEU178     -0.1977
    102  CA        33.4780   13.9380   23.0220 C.3   178  LEU178      0.1596
    103  C         32.2440   14.5830   23.6110 C.2   178  LEU178      0.2287
    104  O         31.3180   14.9000   22.8830 O.2   178  LEU178     -0.2864
    105  CB        34.4190   15.0200   22.5270 C.3   178  LEU178      0.0297
    106  CG        35.8960   15.1940   22.8720 C.3   178  LEU178      0.0022
    107  CD1       36.7790   13.9420   23.3150 C.3   178  LEU178      0.0001
    108  CD2       36.5110   16.0020   21.6830 C.3   178  LEU178      0.0001
    109  N         29.9420   16.2490   20.5130 N.3   198  GLY198     -0.1210
    110  CA        29.9960   15.9950   19.1000 C.3   198  GLY198      0.1956
    111  C         30.5890   14.6290   18.8420 C.2   198  GLY198      0.2612
    112  O         31.1290   13.9680   19.7450 O.2   198  GLY198     -0.2717
    113  N         30.4720   14.2060   17.5980 N.am  199  TYR199     -0.1962
    114  CA        31.1080   12.9630   17.1960 C.3   199  TYR199      0.1771
    115  C         31.4310   13.0020   15.7360 C.2   199  TYR199      0.2619
    116  O         30.8150   13.7710   14.9990 O.2   199  TYR199     -0.2715
    117  CB        30.2440   11.7570   17.5360 C.3   199  TYR199      0.0574
    118  CG        28.8260   12.0060   17.2380 C.ar  199  TYR199     -0.0198
    119  CD1       28.2930   11.7080   15.9850 C.ar  199  TYR199     -0.0009
    120  CD2       27.9790   12.5690   18.2260 C.ar  199  TYR199     -0.0009
    121  CE1       26.9610   11.9570   15.7210 C.ar  199  TYR199      0.0417
    122  CE2       26.6700   12.8410   17.9620 C.ar  199  TYR199      0.0417
    123  CZ        26.1660   12.5280   16.7130 C.ar  199  TYR199      0.1957
    124  OH        24.8110   12.7840   16.4450 O.3   199  TYR199     -0.2866
    125  N         32.4740   12.2570   15.3490 N.am  200  ASP200     -0.1971
    126  CA        32.8620   12.1320   13.9620 C.3   200  ASP200      0.1709
    127  C         32.6020   10.6850   13.6710 C.2   200  ASP200      0.2293
    128  O         33.1480    9.8560   14.3640 O.2   200  ASP200     -0.2864
    129  CB        34.3400   12.4930   13.8220 C.3   200  ASP200      0.1436
    130  CG        34.6140   13.9250   14.2730 C.2   200  ASP200      0.3671
    131  OD1       35.7940   14.2140   14.5200 O.co2 200  ASP200     -0.2456
    132  OD2       33.6500   14.7630   14.4010 O.co2 200  ASP200     -0.2456
    133  N         29.3840   15.9600   13.6560 N.3   212  SER212     -0.1202
    134  CA        28.2350   16.5350   14.2740 C.3   212  SER212      0.2020
    135  C         28.6370   17.1600   15.5990 C.2   212  SER212      0.2618
    136  O         29.5020   16.5910   16.3290 O.2   212  SER212     -0.2717
    137  CB        27.2160   15.4230   14.5540 C.3   212  SER212      0.2103
    138  OG        26.2030   15.9450   15.3450 O.3   212  SER212     -0.2182
    139  N         28.0380   18.3250   15.8950 N.am  213  GLN213     -0.1979
    140  CA        28.1900   18.9910   17.1800 C.3   213  GLN213      0.1601
    141  C         26.8810   19.5440   17.6260 C.2   213  GLN213      0.2287
    142  O         26.0340   19.9090   16.8200 O.2   213  GLN213     -0.2864
    143  CB        29.1730   20.1460   17.0930 C.3   213  GLN213      0.0394
    144  CG        30.5880   19.7290   16.8430 C.3   213  GLN213      0.0908
    145  CD        31.5590   20.3020   17.9030 C.2   213  GLN213      0.2608
    146  OE1       31.7350   21.5410   17.9960 O.2   213  GLN213     -0.2717
    147  NE2       32.1810   19.4020   18.7230 N.am  213  GLN213     -0.0878
    148  N         36.4470   -3.1730   39.4690 N.3   524  LEU524     -0.1245
    149  CA        36.5600   -3.7960   38.1420 C.3   524  LEU524      0.1561
    150  C         35.3920   -4.7380   37.9010 C.2   524  LEU524      0.2260
    151  O         35.2100   -5.7220   38.6320 O.2   524  LEU524     -0.2867
    152  CB        37.8600   -4.5890   38.0340 C.3   524  LEU524      0.0270
    153  CG        38.6400   -4.8500   36.7180 C.3   524  LEU524      0.0019
    154  CD1       38.7670   -6.3390   36.2970 C.3   524  LEU524      0.0001
    155  CD2       38.2010   -3.9450   35.5580 C.3   524  LEU524      0.0001
    156  N         35.1450   -4.5210   30.0450 N.3   547  GLY547     -0.1225
    157  CA        35.4260   -4.2630   31.4500 C.3   547  GLY547      0.1811
    158  C         35.2620   -2.7840   31.7730 C.2   547  GLY547      0.2280
    159  O         35.4590   -1.9090   30.9050 O.2   547  GLY547     -0.2866
    160  N         36.4100    0.0570   34.9000 N.3   549  TYR549     -0.1241
    161  CA        37.1370    0.3100   36.1120 C.3   549  TYR549      0.1605
    162  C         36.6630    1.6520   36.6240 C.2   549  TYR549      0.2264
    163  O         36.9140    2.6740   35.9940 O.2   549  TYR549     -0.2867
    164  CB        38.6330    0.3220   35.8380 C.3   549  TYR549      0.0534
    165  CG        39.4440    0.5040   37.0960 C.ar  549  TYR549     -0.0201
    166  CD1       39.8470   -0.6060   37.8540 C.ar  549  TYR549     -0.0009
    167  CD2       39.7820    1.7830   37.5510 C.ar  549  TYR549     -0.0009
    168  CE1       40.5880   -0.4500   39.0460 C.ar  549  TYR549      0.0417
    169  CE2       40.5150    1.9530   38.7200 C.ar  549  TYR549      0.0417
    170  CZ        40.9130    0.8350   39.4610 C.ar  549  TYR549      0.1957
    171  OH        41.6240    1.0150   40.6170 O.3   549  TYR549     -0.2866
@<TRIPOS>BOND
     1   133   134    1
     2   127   126    1
     3   127   128    2
     4   129   126    1
     5   129   130    1
     6   126   125    1
     7    93    92    1
     8   130   132   ar
     9   130   131   ar
    10   134   137    1
    11   134   135    1
    12   137   138    1
    13    92    91    1
    14   116   115    2
    15   125   115   am
    16   135   139   am
    17   135   136    2
    18   121   119   ar
    19   121   123   ar
    20   115   114    1
    21   139   140    1
    22    84    83    1
    23   119   118   ar
    24    91    90    1
    25   124   123    1
    26   123   122   ar
    27   142   141    2
    28    90    89    1
    29   144   143    1
    30   144   145    1
    31    85    86    1
    32    83    81   ar
    33    83    82   ar
    34   143   140    1
    35   140   141    1
    36   114   117    1
    37   114   113    1
    38   118   117    1
    39   118   120   ar
    40    81    79   ar
    41    89    86    1
    42   113   111   am
    43    88    87    2
    44   145   146    2
    45   145   147   am
    46   122   120   ar
    47    82    80   ar
    48    86    87    1
    49    79    78   ar
    50    87    94   am
    51   111   110    1
    52   111   112    2
    53    80    78   ar
    54   110   109    1
    55    78    77    1
    56    94    95    1
    57    75    74    1
    58    75    76    2
    59    99    98    1
    60    95    98    1
    61    95    96    1
    62    74    77    1
    63    74    73    1
    64    68    67    2
    65    98   100    1
    66    42    40   ar
    67    42    44   ar
    68    96   101   am
    69    96    97    2
    70   108   106    1
    71    22    21    1
    72    22    23    2
    73    45    44    1
    74    73    67   am
    75   101   102    1
    76    67    66    1
    77    21    24    1
    78    21    20    1
    79    40    39   ar
    80    72    70   ar
    81    26    25   ar
    82    26    28   ar
    83    24    25    1
    84    44    43   ar
    85   105   106    1
    86   105   102    1
    87   106   107    1
    88    25    27   ar
    89   104   103    2
    90   102   103    1
    91    28    29   ar
    92    70    69    1
    93    70    71   ar
    94    66    69    1
    95    66    65    1
    96    34    35    1
    97    39    38    1
    98    39    41   ar
    99    43    41   ar
   100    65    63   am
   101    38    35    1
   102    37    36    2
   103    27    29   ar
   104    27    30   ar
   105    29    31   ar
   106    35    36    1
   107    63    62    1
   108    63    64    2
   109    36    46   am
   110    62    61    1
   111    30    32   ar
   112    31    33   ar
   113    46    47    1
   114    17    16    1
   115    17    18    2
   116    32    33   ar
   117    53    51   ar
   118    19    16    1
   119    16    15    1
   120    47    50    1
   121    47    48    1
   122    50    51    1
   123    51    52   ar
   124    12    11    2
   125    15    11   am
   126    48    54   am
   127    48    49    2
   128    54    55    1
   129    59    58    1
   130    11    10    1
   131    57    56    2
   132    58    55    1
   133    58    60    1
   134    13    10    1
   135    13    14    1
   136    55    56    1
   137    10     9    1
   138   156   157    1
   139     9     3   am
   140   159   158    2
   141     7     5    1
   142   157   158    1
   143     3     2    1
   144     3     4    2
   145     2     5    1
   146     2     1    1
   147     5     6    1
   148     6     8    1
   149   160   161    1
   150   155   153    1
   151   164   161    1
   152   164   165    1
   153   163   162    2
   154   161   162    1
   155   154   153    1
   156   153   152    1
   157   165   167   ar
   158   165   166   ar
   159   167   169   ar
   160   166   168   ar
   161   150   149    1
   162   150   151    2
   163   152   149    1
   164   149   148    1
   165   169   170   ar
   166   168   170   ar
   167   170   171    1
