@<TRIPOS>MOLECULE
tmp/2gufA03.pdb
 94 89 0 0 0
SMALL
GASTEIGER

@<TRIPOS>ATOM
      1  N         18.6940   -0.3640    8.8430 N.3    58  SER58      -0.1202
      2  CA        17.6820   -0.9920    9.7140 C.3    58  SER58       0.2020
      3  C         16.2960   -0.5000    9.3900 C.2    58  SER58       0.2619
      4  O         16.1000    0.6680    9.0510 O.2    58  SER58      -0.2717
      5  CB        17.9930   -0.7430   11.1940 C.3    58  SER58       0.2103
      6  OG        18.1590    0.6500   11.4580 O.3    58  SER58      -0.2182
      7  N         15.3270   -1.4010    9.4750 N.am   59  SER59      -0.1937
      8  CA        13.9500   -1.0670    9.1930 C.3    59  SER59       0.2055
      9  C         13.2590   -1.0510   10.5760 C.2    59  SER59       0.2642
     10  O         13.2670   -2.0600   11.2830 O.2    59  SER59      -0.2714
     11  CB        13.3840   -2.1370    8.2320 C.3    59  SER59       0.2130
     12  OG        12.0210   -1.9260    7.8610 O.3    59  SER59      -0.2179
     13  N         12.7110    0.0910   10.9690 N.am   60  ILE60      -0.1977
     14  CA        12.1320    0.2610   12.2840 C.3    60  ILE60       0.1596
     15  C         10.6780    0.6850   12.2100 C.2    60  ILE60       0.2287
     16  O         10.3350    1.6610   11.5220 O.2    60  ILE60      -0.2864
     17  CB        12.8950    1.3240   13.0750 C.3    60  ILE60       0.0276
     18  CG1       14.3880    1.0270   13.0710 C.3    60  ILE60       0.0022
     19  CG2       12.3070    1.5000   14.5200 C.3    60  ILE60       0.0022
     20  CD1       15.2050    2.0450   13.8010 C.3    60  ILE60       0.0001
     21  N          6.6090    3.9850   10.7400 N.3    66  ASN66      -0.1240
     22  CA         8.0180    3.9830   10.7540 C.3    66  ASN66       0.1653
     23  C          8.5170    4.9330   11.8610 C.2    66  ASN66       0.2266
     24  O          7.7340    5.7210   12.4690 O.2    66  ASN66      -0.2867
     25  CB         8.6270    4.2000    9.3490 C.3    66  ASN66       0.1155
     26  CG         8.5810    5.6330    8.8910 C.2    66  ASN66       0.2627
     27  OD1        8.4370    6.5460    9.6910 O.2    66  ASN66      -0.2716
     28  ND2        8.7830    5.8380    7.5810 N.am   66  ASN66      -0.0877
     29  N         10.0910    7.5410   12.1610 N.3    68  SER68      -0.1217
     30  CA        10.0360    8.9730   11.9860 C.3    68  SER68       0.1889
     31  C          8.7680    9.4870   12.6820 C.2    68  SER68       0.2288
     32  O          8.6570   10.6980   12.9130 O.2    68  SER68      -0.2866
     33  CB        10.0620    9.3500   10.4870 C.3    68  SER68       0.2089
     34  OG         8.7670    9.0730    9.9450 O.3    68  SER68      -0.2183
     35  N         18.8080   13.7830    4.7810 N.3    84  VAL84      -0.1231
     36  CA        18.4060   12.9750    3.6260 C.3    84  VAL84       0.1692
     37  C         17.8500   11.6190    4.0540 C.2    84  VAL84       0.2592
     38  O         16.7690   11.2320    3.5830 O.2    84  VAL84      -0.2718
     39  CB        19.5720   12.7870    2.6250 C.3    84  VAL84       0.0266
     40  CG1       19.1110   11.9180    1.4560 C.3    84  VAL84       0.0020
     41  CG2       19.9850   14.1170    2.1170 C.3    84  VAL84       0.0020
     42  N         18.5800   10.9220    4.9350 N.am   85  SER85      -0.1952
     43  CA        18.1400    9.6140    5.4830 C.3    85  SER85       0.1924
     44  C         17.0970    9.6560    6.5740 C.2    85  SER85       0.2314
     45  O         16.7420    8.5890    7.0900 O.2    85  SER85      -0.2863
     46  CB        19.3180    8.8110    6.0370 C.3    85  SER85       0.2116
     47  OG        20.2960    8.6810    4.9980 O.3    85  SER85      -0.2180
     48  N         14.9250    9.4630    9.8060 N.3    87  SER87      -0.1202
     49  CA        15.2230    8.8960   11.1000 C.3    87  SER87       0.2020
     50  C         16.2300    7.8120   11.0780 C.2    87  SER87       0.2618
     51  O         16.7030    7.4350   12.1090 O.2    87  SER87      -0.2717
     52  CB        13.9650    8.4010   11.7730 C.3    87  SER87       0.2103
     53  OG        13.2710    9.5610   12.2400 O.3    87  SER87      -0.2182
     54  N         16.6270    7.3320    9.9100 N.am   88  ALA88      -0.1979
     55  CA        17.6790    6.3250    9.8790 C.3    88  ALA88       0.1597
     56  C         18.9700    6.8470   10.5390 C.2    88  ALA88       0.2287
     57  O         19.8430    6.0410   10.9360 O.2    88  ALA88      -0.2864
     58  CB        17.9730    5.8770    8.4020 C.3    88  ALA88       0.0319
     59  N         15.4170   11.0970   -1.4550 N.3   370  TYR370     -0.1241
     60  CA        14.3250   10.1220   -1.3670 C.3   370  TYR370      0.1605
     61  C         12.9720   10.7950   -1.3100 C.2   370  TYR370      0.2264
     62  O         11.9460   10.1330   -1.1950 O.2   370  TYR370     -0.2867
     63  CB        14.4180    9.2770   -0.0940 C.3   370  TYR370      0.0534
     64  CG        15.6550    8.4840    0.0830 C.ar  370  TYR370     -0.0201
     65  CD1       16.5900    8.8500    1.0300 C.ar  370  TYR370     -0.0009
     66  CD2       15.9290    7.3770   -0.7290 C.ar  370  TYR370     -0.0009
     67  CE1       17.7230    8.1310    1.2160 C.ar  370  TYR370      0.0417
     68  CE2       17.1040    6.6340   -0.5610 C.ar  370  TYR370      0.0417
     69  CZ        17.9880    7.0150    0.4200 C.ar  370  TYR370      0.1957
     70  OH        19.1680    6.3240    0.6190 O.3   370  TYR370     -0.2866
     71  N          7.9540    4.6290    3.2850 N.3   411  TYR411     -0.1241
     72  CA         9.0560    4.7180    2.4220 C.3   411  TYR411      0.1605
     73  C          9.0390    3.4090    1.6360 C.2   411  TYR411      0.2264
     74  O          8.8250    2.3190    2.2180 O.2   411  TYR411     -0.2867
     75  CB        10.3450    4.8990    3.2400 C.3   411  TYR411      0.0534
     76  CG        11.5660    4.6760    2.4070 C.ar  411  TYR411     -0.0201
     77  CD1       12.2420    3.4510    2.4440 C.ar  411  TYR411     -0.0009
     78  CD2       12.0520    5.6790    1.5630 C.ar  411  TYR411     -0.0009
     79  CE1       13.3560    3.2300    1.6460 C.ar  411  TYR411      0.0417
     80  CE2       13.1710    5.4660    0.7860 C.ar  411  TYR411      0.0417
     81  CZ        13.8110    4.2290    0.8280 C.ar  411  TYR411      0.1957
     82  OH        14.9200    4.0000    0.0320 O.3   411  TYR411     -0.2866
     83  N          9.9130    8.0670   -0.4970 N.3   418  TYR418     -0.1241
     84  CA         8.7270    8.2650    0.3220 C.3   418  TYR418      0.1605
     85  C          7.5050    8.3560   -0.5480 C.2   418  TYR418      0.2264
     86  O          7.5760    8.7860   -1.6920 O.2   418  TYR418     -0.2867
     87  CB         8.8330    9.5550    1.0890 C.3   418  TYR418      0.0534
     88  CG         9.9290    9.5640    2.1150 C.ar  418  TYR418     -0.0201
     89  CD1       11.0660   10.3330    1.9200 C.ar  418  TYR418     -0.0009
     90  CD2        9.7980    8.8500    3.2880 C.ar  418  TYR418     -0.0009
     91  CE1       12.1000   10.3680    2.9050 C.ar  418  TYR418      0.0417
     92  CE2       10.7860    8.8820    4.2570 C.ar  418  TYR418      0.0417
     93  CZ        11.9480    9.6470    4.0390 C.ar  418  TYR418      0.1957
     94  OH        12.9100    9.6840    5.0120 O.3   418  TYR418     -0.2866
@<TRIPOS>BOND
     1    86    85    2
     2    59    60    1
     3    60    61    1
     4    60    63    1
     5    61    62    2
     6    66    68   ar
     7    66    64   ar
     8    68    69   ar
     9    85    84    1
    10    83    84    1
    11    63    64    1
    12    82    81    1
    13    64    65   ar
    14    84    87    1
    15    69    70    1
    16    69    67   ar
    17    80    81   ar
    18    80    78   ar
    19    81    79   ar
    20    65    67   ar
    21    87    88    1
    22    40    39    1
    23    78    76   ar
    24    73    74    2
    25    73    72    1
    26    79    77   ar
    27    89    88   ar
    28    89    91   ar
    29    88    90   ar
    30    41    39    1
    31    76    77   ar
    32    76    75    1
    33    72    75    1
    34    72    71    1
    35    39    36    1
    36    91    93   ar
    37    90    92   ar
    38    38    37    2
    39    36    37    1
    40    36    35    1
    41    93    92   ar
    42    93    94    1
    43    37    42   am
    44    42    43    1
    45    47    46    1
    46    43    46    1
    47    43    44    1
    48    44    45    2
    49    28    26   am
    50    12    11    1
    51    11     8    1
    52    58    55    1
    53     1     2    1
    54    26    25    1
    55    26    27    2
    56     4     3    2
    57     8     7    1
    58     8     9    1
    59    25    22    1
    60     3     7   am
    61     3     2    1
    62     2     5    1
    63    48    49    1
    64    55    54    1
    65    55    56    1
    66    54    50   am
    67    34    33    1
    68    33    30    1
    69    56    57    2
    70     9    13   am
    71     9    10    2
    72    21    22    1
    73    22    23    1
    74    13    14    1
    75    50    49    1
    76    50    51    2
    77    49    52    1
    78     5     6    1
    79    16    15    2
    80    52    53    1
    81    23    24    2
    82    30    29    1
    83    30    31    1
    84    15    14    1
    85    14    17    1
    86    31    32    2
    87    18    17    1
    88    18    20    1
    89    17    19    1
