@<TRIPOS>MOLECULE
tmp/2gufA01.pdb
 115 106 0 0 0
SMALL
GASTEIGER

@<TRIPOS>ATOM
      1  N         16.1520   16.0130   18.2740 N.3    79  LEU79      -0.1231
      2  CA        17.3890   15.6710   17.5620 C.3    79  LEU79       0.1693
      3  C         17.1100   15.9150   16.1090 C.2    79  LEU79       0.2592
      4  O         16.0920   15.4570   15.5650 O.2    79  LEU79      -0.2718
      5  CB        17.7170   14.1870   17.7330 C.3    79  LEU79       0.0284
      6  CG        18.8310   13.5300   16.9570 C.3    79  LEU79       0.0019
      7  CD1       20.2290   14.0480   17.2980 C.3    79  LEU79       0.0001
      8  CD2       18.7420   11.9790   17.2130 C.3    79  LEU79       0.0001
      9  N         17.9880   16.6780   15.4760 N.am   80  ASN80      -0.1960
     10  CA        17.8820   16.8500   14.0370 C.3    80  ASN80       0.1819
     11  C         17.9560   15.5110   13.2560 C.2    80  ASN80       0.2621
     12  O         19.0540   14.9760   12.9880 O.2    80  ASN80      -0.2715
     13  CB        18.9220   17.8740   13.5400 C.3    80  ASN80       0.1195
     14  CG        18.6410   18.3040   12.1320 C.2    80  ASN80       0.2630
     15  OD1       17.7650   17.7330   11.4820 O.2    80  ASN80      -0.2716
     16  ND2       19.3580   19.3130   11.6580 N.am   80  ASN80      -0.0877
     17  N         16.7820   15.0280   12.8370 N.am   81  LEU81      -0.1977
     18  CA        16.6520   13.8630   11.9410 C.3    81  LEU81       0.1596
     19  C         15.9350   14.2000   10.6430 C.2    81  LEU81       0.2287
     20  O         15.1920   13.3650   10.0780 O.2    81  LEU81      -0.2864
     21  CB        16.0270   12.6520   12.6710 C.3    81  LEU81       0.0297
     22  CG        16.7870   12.0110   13.8270 C.3    81  LEU81       0.0022
     23  CD1       15.9740   11.0050   14.5980 C.3    81  LEU81       0.0001
     24  CD2       18.2140   11.4400   13.3990 C.3    81  LEU81       0.0001
     25  N         17.7560   15.1720    8.0030 N.3    83  GLY83      -0.1225
     26  CA        18.6450   14.7940    6.9290 C.3    83  GLY83       0.1811
     27  C         18.0460   13.9260    5.8580 C.2    83  GLY83       0.2280
     28  O         16.8970   13.4320    5.9760 O.2    83  GLY83      -0.2866
     29  N         19.1180    8.1810   10.6340 N.3    89  ASP89      -0.1239
     30  CA        20.3460    8.7660   11.2020 C.3    89  ASP89       0.1674
     31  C         20.4080    8.5910   12.7150 C.2    89  ASP89       0.2266
     32  O         21.4680    8.8160   13.3240 O.2    89  ASP89      -0.2867
     33  CB        20.5190   10.2480   10.8570 C.3    89  ASP89       0.1410
     34  CG        21.0170   10.4570    9.4480 C.2    89  ASP89       0.3668
     35  OD1       20.8710   11.5840    8.8690 O.co2  89  ASP89      -0.2456
     36  OD2       21.5760    9.4700    8.9210 O.co2  89  ASP89      -0.2456
     37  N         23.3400    6.9590   13.9700 N.3    92  GLN92      -0.1231
     38  CA        24.6330    7.6320   14.0060 C.3    92  GLN92       0.1698
     39  C         24.9230    8.1190   15.4220 C.2    92  GLN92       0.2592
     40  O         26.0530    8.3660   15.7530 O.2    92  GLN92      -0.2718
     41  CB        24.6520    8.8210   13.0260 C.3    92  GLN92       0.0381
     42  CG        24.5990    8.4090   11.5350 C.3    92  GLN92       0.0905
     43  CD        25.8250    7.6450   11.0850 C.2    92  GLN92       0.2608
     44  OE1       26.9680    8.1100   11.2250 O.2    92  GLN92      -0.2717
     45  NE2       25.5960    6.4830   10.4990 N.am   92  GLN92      -0.0878
     46  N         23.8830    8.2690   16.2370 N.am   93  PHE93      -0.1976
     47  CA        24.0320    8.7940   17.5960 C.3    93  PHE93       0.1639
     48  C         24.6940    7.7850   18.5050 C.2    93  PHE93       0.2290
     49  O         24.2680    6.6140   18.5970 O.2    93  PHE93      -0.2864
     50  CB        22.6810    9.2430   18.1420 C.3    93  PHE93       0.0560
     51  CG        22.7700   10.0700   19.4200 C.ar   93  PHE93      -0.0200
     52  CD1       22.7180   11.4720   19.3760 C.ar   93  PHE93      -0.0042
     53  CD2       22.8640    9.4390   20.6720 C.ar   93  PHE93      -0.0042
     54  CE1       22.7780   12.2200   20.5950 C.ar   93  PHE93      -0.0003
     55  CE2       22.9300   10.1700   21.8750 C.ar   93  PHE93      -0.0003
     56  CZ        22.8830   11.5550   21.8450 C.ar   93  PHE93      -0.0000
     57  N         30.4720   14.2060   17.5980 N.3   199  TYR199     -0.1241
     58  CA        31.1080   12.9630   17.1960 C.3   199  TYR199      0.1605
     59  C         31.4310   13.0020   15.7360 C.2   199  TYR199      0.2264
     60  O         30.8150   13.7710   14.9990 O.2   199  TYR199     -0.2867
     61  CB        30.2440   11.7570   17.5360 C.3   199  TYR199      0.0534
     62  CG        28.8260   12.0060   17.2380 C.ar  199  TYR199     -0.0201
     63  CD1       28.2930   11.7080   15.9850 C.ar  199  TYR199     -0.0009
     64  CD2       27.9790   12.5690   18.2260 C.ar  199  TYR199     -0.0009
     65  CE1       26.9610   11.9570   15.7210 C.ar  199  TYR199      0.0417
     66  CE2       26.6700   12.8410   17.9620 C.ar  199  TYR199      0.0417
     67  CZ        26.1660   12.5280   16.7130 C.ar  199  TYR199      0.1957
     68  OH        24.8110   12.7840   16.4450 O.3   199  TYR199     -0.2866
     69  N         30.8680    7.4200    4.0560 N.3   208  ARG208     -0.1245
     70  CA        30.1990    8.5070    4.6970 C.3   208  ARG208      0.1563
     71  C         31.0560    9.0440    5.8120 C.2   208  ARG208      0.2260
     72  O         31.6610    8.2770    6.5890 O.2   208  ARG208     -0.2867
     73  CB        28.8570    8.0450    5.2350 C.3   208  ARG208      0.0307
     74  CG        28.0260    9.2150    5.8540 C.3   208  ARG208      0.0489
     75  CD        26.9470    8.6730    6.6070 C.3   208  ARG208      0.2205
     76  NE        25.9880    9.7320    6.9130 N.pl3 208  ARG208     -0.0865
     77  CZ        24.8240    9.5030    7.5080 C.cat 208  ARG208      0.5346
     78  NH1       24.5040    8.2540    7.8170 N.pl3 208  ARG208      0.1354
     79  NH2       23.9610   10.4980    7.7480 N.pl3 208  ARG208      0.1354
     80  N         30.4560   11.8650    8.7750 N.3   210  LEU210     -0.1245
     81  CA        29.5070   12.7180    9.4100 C.3   210  LEU210      0.1561
     82  C         30.2800   13.3630   10.5810 C.2   210  LEU210      0.2260
     83  O         30.9210   12.6630   11.3710 O.2   210  LEU210     -0.2867
     84  CB        28.4090   11.8060    9.8760 C.3   210  LEU210      0.0270
     85  CG        27.0620   12.2960   10.3810 C.3   210  LEU210      0.0019
     86  CD1       26.8760   11.9450   11.8340 C.3   210  LEU210      0.0001
     87  CD2       26.8080   13.7650    9.9970 C.3   210  LEU210      0.0001
     88  N         29.3840   15.9600   13.6560 N.3   212  SER212     -0.1217
     89  CA        28.2350   16.5350   14.2740 C.3   212  SER212      0.1889
     90  C         28.6370   17.1600   15.5990 C.2   212  SER212      0.2288
     91  O         29.5020   16.5910   16.3290 O.2   212  SER212     -0.2866
     92  CB        27.2160   15.4230   14.5540 C.3   212  SER212      0.2089
     93  OG        26.2030   15.9450   15.3450 O.3   212  SER212     -0.2183
     94  N         25.8370   19.7620   11.6940 N.3   237  SER237     -0.1217
     95  CA        26.5090   18.5890   11.1470 C.3   237  SER237      0.1889
     96  C         26.9480   18.8170    9.6980 C.2   237  SER237      0.2288
     97  O         26.2770   19.5340    8.9320 O.2   237  SER237     -0.2866
     98  CB        25.6690   17.3290   11.2770 C.3   237  SER237      0.2089
     99  OG        24.4480   17.4800   10.6110 O.3   237  SER237     -0.2183
    100  N         27.8500   16.3000    6.5430 N.3   239  ASP239     -0.1239
    101  CA        27.6880   14.9280    6.1840 C.3   239  ASP239      0.1674
    102  C         28.1510   14.7460    4.7390 C.2   239  ASP239      0.2266
    103  O         27.4470   15.2200    3.8090 O.2   239  ASP239     -0.2867
    104  CB        26.2060   14.6390    6.2580 C.3   239  ASP239      0.1410
    105  CG        25.8740   13.1770    6.2460 C.2   239  ASP239      0.3668
    106  OD1       26.7660   12.2880    6.1040 O.co2 239  ASP239     -0.2456
    107  OD2       24.6640   12.9070    6.4170 O.co2 239  ASP239     -0.2456
    108  N         23.8870   20.7290    7.8880 N.3   258  MET258     -0.1245
    109  CA        22.5860   20.9720    8.5190 C.3   258  MET258      0.1570
    110  C         22.8300   21.7020    9.7990 C.2   258  MET258      0.2261
    111  O         23.8460   21.4580   10.4430 O.2   258  MET258     -0.2867
    112  CB        21.9070   19.6410    8.8160 C.3   258  MET258      0.0387
    113  CG        21.6230   18.8610    7.5260 C.3   258  MET258      0.0595
    114  SD        20.0350   18.0450    7.8500 S.3   258  MET258     -0.1393
    115  CE        18.8670   19.4250    8.0820 C.3   258  MET258      0.0692
@<TRIPOS>BOND
     1   103   102    2
     2    69    70    1
     3    70    73    1
     4    70    71    1
     5   102   101    1
     6    73    74    1
     7    71    72    2
     8    74    75    1
     9    27    28    2
    10    27    26    1
    11   106   105   ar
    12   101   104    1
    13   101   100    1
    14   105   104    1
    15   105   107   ar
    16    75    76    1
    17    76    77    2
    18    26    25    1
    19    77    79    1
    20    77    78    1
    21   113   114    1
    22   113   112    1
    23   114   115    1
    24   108   109    1
    25   109   112    1
    26   109   110    1
    27    80    81    1
    28    35    34   ar
    29    36    34   ar
    30    97    96    2
    31    81    84    1
    32    81    82    1
    33    34    33    1
    34    96    95    1
    35   110   111    2
    36    84    85    1
    37    87    85    1
    38    20    19    2
    39    85    86    1
    40    45    43   am
    41    82    83    2
    42    99    98    1
    43    29    30    1
    44    19    18    1
    45    33    30    1
    46    43    44    2
    47    43    42    1
    48    95    98    1
    49    95    94    1
    50    30    31    1
    51    15    14    2
    52    42    41    1
    53    16    14   am
    54    18    21    1
    55    18    17    1
    56    14    13    1
    57    21    22    1
    58    31    32    2
    59    17    11   am
    60    12    11    2
    61    41    38    1
    62    11    10    1
    63    24    22    1
    64    13    10    1
    65    88    89    1
    66    22    23    1
    67    37    38    1
    68    38    39    1
    69    10     9    1
    70    89    92    1
    71    89    90    1
    72    92    93    1
    73    60    59    2
    74    39    40    2
    75    39    46   am
    76     9     3   am
    77     4     3    2
    78    90    91    2
    79    65    63   ar
    80    65    67   ar
    81    59    58    1
    82    63    62   ar
    83     3     2    1
    84    46    47    1
    85    68    67    1
    86    67    66   ar
    87     6     8    1
    88     6     7    1
    89     6     5    1
    90    58    61    1
    91    58    57    1
    92    62    61    1
    93    62    64   ar
    94     2     5    1
    95     2     1    1
    96    47    50    1
    97    47    48    1
    98    66    64   ar
    99    50    51    1
   100    48    49    2
   101    52    51   ar
   102    52    54   ar
   103    51    53   ar
   104    54    56   ar
   105    53    55   ar
   106    56    55   ar
