@<TRIPOS>MOLECULE
tmp/2gufA09.pdb
 80 77 0 0 0
SMALL
GASTEIGER

@<TRIPOS>ATOM
      1  N         -0.3060   22.8260   36.2720 N.3   276  ILE276     -0.1245
      2  CA        -0.5530   23.3160   34.9300 C.3   276  ILE276      0.1561
      3  C          0.7340   23.8930   34.3830 C.2   276  ILE276      0.2260
      4  O          1.6000   24.2590   35.1260 O.2   276  ILE276     -0.2867
      5  CB        -1.6520   24.3590   34.8760 C.3   276  ILE276      0.0252
      6  CG1       -1.3100   25.5890   35.7060 C.3   276  ILE276      0.0019
      7  CG2       -2.9720   23.7340   35.3120 C.3   276  ILE276      0.0019
      8  CD1       -2.5570   26.4760   35.8630 C.3   276  ILE276      0.0001
      9  N         -0.0620   24.3000   26.1990 N.3   307  LEU307     -0.1231
     10  CA        -0.6300   24.3190   27.5060 C.3   307  LEU307      0.1693
     11  C         -0.6660   22.8430   28.0130 C.2   307  LEU307      0.2593
     12  O         -0.8670   21.9100   27.2180 O.2   307  LEU307     -0.2718
     13  CB        -2.0630   24.8400   27.3250 C.3   307  LEU307      0.0284
     14  CG        -2.8630   25.0740   28.5930 C.3   307  LEU307      0.0019
     15  CD1       -2.1580   26.0400   29.5700 C.3   307  LEU307      0.0001
     16  CD2       -4.2540   25.6080   28.1160 C.3   307  LEU307      0.0001
     17  N         -0.3900   22.6100   29.2930 N.am  308  THR308     -0.1939
     18  CA        -0.4870   21.2460   29.8500 C.3   308  THR308      0.2028
     19  C         -1.2460   21.3540   31.1930 C.2   308  THR308      0.2642
     20  O         -1.2090   22.3990   31.8840 O.2   308  THR308     -0.2714
     21  CB         0.8700   20.5430   30.0860 C.3   308  THR308      0.1808
     22  OG1        1.5430   21.2050   31.1600 O.3   308  THR308     -0.2208
     23  CG2        1.7980   20.6120   28.8820 C.3   308  THR308      0.0379
     24  N         -1.9680   20.3050   31.5560 N.am  309  GLY309     -0.1954
     25  CA        -2.5350   20.2600   32.8970 C.3   309  GLY309      0.1869
     26  C         -2.5460   18.8260   33.3980 C.2   309  GLY309      0.2309
     27  O         -2.6840   17.9160   32.5900 O.2   309  GLY309     -0.2863
     28  N         -4.0370   16.6560   30.3360 N.3   320  GLY320     -0.1210
     29  CA        -4.2530   17.1710   28.9940 C.3   320  GLY320      0.1956
     30  C         -3.1100   18.0250   28.5180 C.2   320  GLY320      0.2612
     31  O         -2.2640   18.4430   29.3050 O.2   320  GLY320     -0.2717
     32  N         -3.0500   18.2310   27.2080 N.am  321  ALA321     -0.1965
     33  CA        -2.1370   19.1840   26.6330 C.3   321  ALA321      0.1728
     34  C         -2.7330   19.6780   25.3650 C.2   321  ALA321      0.2616
     35  O         -3.5120   18.9690   24.7250 O.2   321  ALA321     -0.2715
     36  CB        -0.7890   18.5370   26.3730 C.3   321  ALA321      0.0334
     37  N         -2.4120   20.9200   24.9930 N.am  322  ALA322     -0.1977
     38  CA        -2.8180   21.4230   23.6790 C.3   322  ALA322      0.1597
     39  C         -1.6950   22.2860   23.1940 C.2   322  ALA322      0.2287
     40  O         -1.1250   23.0280   23.9780 O.2   322  ALA322     -0.2864
     41  CB        -4.0670   22.2690   23.8070 C.3   322  ALA322      0.0319
     42  N         -4.0280   18.3670   20.3400 N.3   336  TRP336     -0.1227
     43  CA        -4.4420   18.3190   21.7270 C.3   336  TRP336      0.1737
     44  C         -4.6330   16.8500   22.1250 C.2   336  TRP336      0.2595
     45  O         -4.7010   15.9890   21.2570 O.2   336  TRP336     -0.2718
     46  CB        -5.7180   19.1100   21.9670 C.3   336  TRP336      0.0564
     47  CG        -6.9470   18.5060   21.3450 C.ar  336  TRP336      0.0003
     48  CD1       -7.3040   18.5150   20.0190 C.ar  336  TRP336      0.0946
     49  CD2       -7.9640   17.7770   22.0280 C.ar  336  TRP336      0.0152
     50  NE1       -8.5160   17.8700   19.8480 N.ar  336  TRP336     -0.2442
     51  CE2       -8.9230   17.3910   21.0680 C.ar  336  TRP336      0.0810
     52  CE3       -8.1610   17.4140   23.3640 C.ar  336  TRP336      0.0012
     53  CZ2      -10.0670   16.6600   21.4080 C.ar  336  TRP336      0.0191
     54  CZ3       -9.3250   16.6760   23.6980 C.ar  336  TRP336      0.0001
     55  CH2      -10.2420   16.3190   22.7210 C.ar  336  TRP336      0.0015
     56  N         -4.5980   16.5890   23.4360 N.am  337  GLN337     -0.1965
     57  CA        -4.7700   15.2580   23.9230 C.3   337  GLN337      0.1733
     58  C         -5.2990   15.3740   25.3200 C.2   337  GLN337      0.2617
     59  O         -5.0260   16.3460   26.0370 O.2   337  GLN337     -0.2715
     60  CB        -3.4790   14.4650   23.9420 C.3   337  GLN337      0.0408
     61  CG        -2.2750   15.1320   24.5890 C.3   337  GLN337      0.0908
     62  CD        -0.9880   14.4170   24.2940 C.2   337  GLN337      0.2608
     63  OE1       -0.2880   14.7260   23.3360 O.2   337  GLN337     -0.2717
     64  NE2       -0.6560   13.4430   25.1240 N.am  337  GLN337     -0.0878
     65  N         -6.0120   14.3430   25.7250 N.am  338  THR338     -0.1951
     66  CA        -6.4900   14.2640   27.0810 C.3   338  THR338      0.1897
     67  C         -6.4930   12.7680   27.4690 C.2   338  THR338      0.2313
     68  O         -6.7070   11.9220   26.6250 O.2   338  THR338     -0.2863
     69  CB        -7.8930   14.9280   27.2300 C.3   338  THR338      0.1794
     70  OG1       -8.2300   14.9890   28.6100 O.3   338  THR338     -0.2208
     71  CG2       -8.9530   14.1590   26.5110 C.3   338  THR338      0.0378
     72  N         -5.2270   10.8380   14.5800 N.3   381  LYS381     -0.1245
     73  CA        -6.1930   10.8250   15.6760 C.3   381  LYS381      0.1561
     74  C         -5.9670    9.4610   16.3520 C.2   381  LYS381      0.2260
     75  O         -5.9820    8.4450   15.6650 O.2   381  LYS381     -0.2867
     76  CB        -7.6540   10.8920   15.1630 C.3   381  LYS381      0.0271
     77  CG        -8.0990   12.2610   14.6140 C.3   381  LYS381      0.0035
     78  CD        -9.5760   12.2340   14.2280 C.3   381  LYS381      0.0206
     79  CE       -10.0450   13.6760   13.9060 C.3   381  LYS381      0.1093
     80  NZ       -10.4710   14.4310   15.1870 N.3   381  LYS381     -0.1314
@<TRIPOS>BOND
     1    79    78    1
     2    79    80    1
     3    78    77    1
     4    72    73    1
     5    77    76    1
     6    76    73    1
     7    75    74    2
     8    73    74    1
     9    50    48   ar
    10    50    51   ar
    11    48    47   ar
    12    42    43    1
    13    51    53   ar
    14    51    49   ar
    15    45    44    2
    16    47    46    1
    17    47    49   ar
    18    53    55   ar
    19    43    46    1
    20    43    44    1
    21    49    52   ar
    22    44    56   am
    23    55    54   ar
    24    39    38    1
    25    39    40    2
    26    63    62    2
    27    52    54   ar
    28    56    57    1
    29    38    41    1
    30    38    37    1
    31    57    60    1
    32    57    58    1
    33    60    61    1
    34    62    61    1
    35    62    64   am
    36    35    34    2
    37    37    34   am
    38    58    65   am
    39    58    59    2
    40    34    33    1
    41    65    66    1
    42     9    10    1
    43    36    33    1
    44    71    69    1
    45    68    67    2
    46    33    32    1
    47    66    69    1
    48    66    67    1
    49    32    30   am
    50    12    11    2
    51    69    70    1
    52    13    10    1
    53    13    14    1
    54    10    11    1
    55    11    17   am
    56    16    14    1
    57    30    29    1
    58    30    31    2
    59    14    15    1
    60    23    21    1
    61    29    28    1
    62    17    18    1
    63    18    21    1
    64    18    19    1
    65    21    22    1
    66    19    24   am
    67    19    20    2
    68    24    25    1
    69    27    26    2
    70    25    26    1
    71     3     2    1
    72     3     4    2
    73     5     2    1
    74     5     7    1
    75     5     6    1
    76     2     1    1
    77     6     8    1
