@<TRIPOS>MOLECULE
tmp/2gugA01.pdb
 116 110 0 0 0
SMALL
GASTEIGER

@<TRIPOS>ATOM
      1  N          0.3540   -4.2730   52.1570 N.3    98  PHE98      -0.1241
      2  CA        -0.6900   -4.8250   53.0220 C.3    98  PHE98       0.1605
      3  C         -0.2010   -5.2260   54.4010 C.2    98  PHE98       0.2264
      4  O         -0.9950   -5.4130   55.3380 O.2    98  PHE98      -0.2867
      5  CB        -1.3690   -5.9010   52.2390 C.3    98  PHE98       0.0534
      6  CG        -1.8340   -5.3840   50.8980 C.ar   98  PHE98      -0.0203
      7  CD1       -2.9390   -4.5310   50.8280 C.ar   98  PHE98      -0.0042
      8  CD2       -1.1020   -5.6380   49.7500 C.ar   98  PHE98      -0.0042
      9  CE1       -3.3370   -3.9470   49.6000 C.ar   98  PHE98      -0.0003
     10  CE2       -1.4800   -5.1160   48.5290 C.ar   98  PHE98      -0.0003
     11  CZ        -2.5930   -4.2780   48.4400 C.ar   98  PHE98      -0.0000
     12  N          2.4940   -2.0410   45.1180 N.3   122  ILE122     -0.1245
     13  CA         2.6650   -0.8180   44.3740 C.3   122  ILE122      0.1561
     14  C          3.2290    0.2640   45.2500 C.2   122  ILE122      0.2260
     15  O          2.9060    0.3450   46.4240 O.2   122  ILE122     -0.2867
     16  CB         1.3190   -0.5060   43.6530 C.3   122  ILE122      0.0252
     17  CG1        1.3910   -1.1820   42.3140 C.3   122  ILE122      0.0019
     18  CG2        0.9210    1.0020   43.5730 C.3   122  ILE122      0.0019
     19  CD1        0.0800   -1.5670   41.9590 C.3   122  ILE122      0.0001
     20  N          1.4760   -1.6920   38.2180 N.3   144  TYR144     -0.1241
     21  CA         0.2460   -2.2680   37.6700 C.3   144  TYR144      0.1605
     22  C         -0.3450   -3.5560   38.2540 C.2   144  TYR144      0.2264
     23  O         -1.4770   -3.8620   37.9070 O.2   144  TYR144     -0.2867
     24  CB         0.3270   -2.4530   36.1720 C.3   144  TYR144      0.0534
     25  CG        -0.6900   -1.6120   35.3960 C.ar  144  TYR144     -0.0201
     26  CD1       -2.0690   -1.7380   35.6340 C.ar  144  TYR144     -0.0009
     27  CD2       -0.2600   -0.7040   34.4250 C.ar  144  TYR144     -0.0009
     28  CE1       -2.9880   -0.9650   34.9430 C.ar  144  TYR144      0.0417
     29  CE2       -1.1520    0.0480   33.6920 C.ar  144  TYR144      0.0417
     30  CZ        -2.5140   -0.0780   33.9620 C.ar  144  TYR144      0.1957
     31  OH        -3.3700    0.6900   33.2510 O.3   144  TYR144     -0.2866
     32  N         -1.9630   -4.6810   40.7150 N.3   146  ASN146     -0.1225
     33  CA        -3.2800   -4.6990   41.3320 C.3   146  ASN146      0.1785
     34  C         -4.1150   -3.3970   41.0820 C.2   146  ASN146      0.2597
     35  O         -5.1040   -3.1270   41.7560 O.2   146  ASN146     -0.2718
     36  CB        -3.1270   -5.0530   42.8170 C.3   146  ASN146      0.1169
     37  CG        -2.2450   -4.0360   43.5630 C.2   146  ASN146      0.2627
     38  OD1       -1.9890   -2.9620   43.0390 O.2   146  ASN146     -0.2716
     39  ND2       -1.7600   -4.3890   44.7540 N.am  146  ASN146     -0.0877
     40  N         -3.7680   -2.6310   40.0540 N.am  147  SER147     -0.1952
     41  CA        -4.6110   -1.4820   39.7170 C.3   147  SER147      0.1924
     42  C         -6.0440   -1.9030   39.3860 C.2   147  SER147      0.2314
     43  O         -6.9890   -1.2030   39.6830 O.2   147  SER147     -0.2863
     44  CB        -3.9960   -0.6620   38.5510 C.3   147  SER147      0.2116
     45  OG        -2.6330   -0.5510   38.8170 O.3   147  SER147     -0.2180
     46  N         -7.9850   -2.8690   42.5530 N.3   150  VAL150     -0.1245
     47  CA        -8.4670   -1.7980   43.3560 C.3   150  VAL150      0.1561
     48  C         -9.6890   -1.2130   42.6670 C.2   150  VAL150      0.2260
     49  O        -10.6830   -0.9400   43.3350 O.2   150  VAL150     -0.2867
     50  CB        -7.3500   -0.7810   43.6540 C.3   150  VAL150      0.0252
     51  CG1       -7.8250    0.2750   44.7050 C.3   150  VAL150      0.0019
     52  CG2       -6.0980   -1.5330   44.1620 C.3   150  VAL150      0.0019
     53  N         -3.8360    4.4560   36.5780 N.3   201  ARG201     -0.1231
     54  CA        -4.1260    3.0440   36.4000 C.3   201  ARG201      0.1694
     55  C         -5.4330    2.6870   37.0540 C.2   201  ARG201      0.2591
     56  O         -6.2320    1.9790   36.4860 O.2   201  ARG201     -0.2718
     57  CB        -3.0020    2.2050   37.0030 C.3   201  ARG201      0.0321
     58  CG        -1.6550    2.5240   36.3400 C.3   201  ARG201      0.0489
     59  CD        -0.5450    1.6040   36.7790 C.3   201  ARG201      0.2205
     60  NE         0.5730    1.9540   35.9450 N.pl3 201  ARG201     -0.0865
     61  CZ         1.4860    2.8750   36.2330 C.cat 201  ARG201      0.5346
     62  NH1        1.5060    3.5090   37.3830 N.pl3 201  ARG201      0.1354
     63  NH2        2.4180    3.1240   35.3530 N.pl3 201  ARG201      0.1354
     64  N         -5.6750    3.2260   38.2390 N.am  202  ILE202     -0.1980
     65  CA        -6.9370    2.9440   38.9600 C.3   202  ILE202      0.1595
     66  C         -8.0980    3.8430   38.5570 C.2   202  ILE202      0.2287
     67  O         -9.1660    3.3600   38.2900 O.2   202  ILE202     -0.2864
     68  CB        -6.7110    3.0080   40.4610 C.3   202  ILE202      0.0276
     69  CG1       -5.7960    1.8550   40.8680 C.3   202  ILE202      0.0022
     70  CG2       -8.0350    2.9430   41.2170 C.3   202  ILE202      0.0022
     71  CD1       -5.1130    2.1330   42.2550 C.3   202  ILE202      0.0001
     72  N         -5.3430    8.8950   44.4890 N.3   255  CYS255     -0.1221
     73  CA        -4.0340    9.6580   44.5870 C.3   255  CYS255      0.1794
     74  C         -2.9950    9.9060   43.4230 C.2   255  CYS255      0.2443
     75  O         -2.6260   11.0840   43.1690 O.2   255  CYS255     -0.2733
     76  CB        -3.3030    9.2960   45.9000 C.3   255  CYS255      0.0970
     77  SG        -2.5510    7.6060   45.9770 S.3   255  CYS255     -0.0800
     78  N         -2.4580    8.8230   42.7940 N.am  256  PRO256     -0.2729
     79  CA        -1.7230    8.9620   41.5520 C.3   256  PRO256      0.1401
     80  C         -2.5670    8.5880   40.3020 C.2   256  PRO256      0.2269
     81  O         -2.1740    8.8790   39.1420 O.2   256  PRO256     -0.2865
     82  CB        -0.5670    7.9640   41.7400 C.3   256  PRO256      0.0296
     83  CG        -1.0800    6.9310   42.7440 C.3   256  PRO256      0.0237
     84  CD        -2.4330    7.4100   43.2280 C.3   256  PRO256      0.0939
     85  N         -9.8060    4.3980   48.4210 N.3   276  THR276     -0.1203
     86  CA        -8.8190    3.3380   48.4980 C.3   276  THR276      0.1994
     87  C         -7.4120    3.9420   48.3360 C.2   276  THR276      0.2617
     88  O         -6.4540    3.2400   48.0940 O.2   276  THR276     -0.2717
     89  CB        -9.0820    2.3100   47.4010 C.3   276  THR276      0.1784
     90  OG1       -9.2420    3.0100   46.1870 O.3   276  THR276     -0.2211
     91  CG2      -10.4120    1.5850   47.6150 C.3   276  THR276      0.0376
     92  N         -7.2480    5.2340   48.5020 N.am  277  ALA277     -0.1979
     93  CA        -5.9250    5.8100   48.2600 C.3   277  ALA277      0.1597
     94  C         -5.0780    5.8490   49.5310 C.2   277  ALA277      0.2287
     95  O         -4.1760    5.0450   49.7220 O.2   277  ALA277     -0.2864
     96  CB        -6.0380    7.1770   47.6250 C.3   277  ALA277      0.0319
     97  N         -7.4470   -3.4320   54.7640 N.3   326  HIS326     -0.1241
     98  CA        -6.6370   -3.0670   53.5990 C.3   326  HIS326      0.1621
     99  C         -6.2980   -4.3220   52.7640 C.2   326  HIS326      0.2264
    100  O         -5.4300   -5.0680   53.0960 O.2   326  HIS326     -0.2867
    101  CB        -5.4010   -2.3460   54.0900 C.3   326  HIS326      0.0745
    102  CG        -4.5500   -1.7530   53.0110 C.ar  326  HIS326      0.0817
    103  ND1       -3.2520   -1.3410   53.2450 N.ar  326  HIS326     -0.2268
    104  CD2       -4.8040   -1.4750   51.7130 C.ar  326  HIS326      0.1154
    105  CE1       -2.7550   -0.8090   52.1410 C.ar  326  HIS326      0.1986
    106  NE2       -3.6690   -0.8900   51.1940 N.ar  326  HIS326     -0.2212
    107  N         -7.6510   -4.5870   49.0910 N.3   328  SER328     -0.1202
    108  CA        -8.2220   -4.4840   47.7460 C.3   328  SER328      0.2020
    109  C         -7.2170   -4.9310   46.7210 C.2   328  SER328      0.2619
    110  O         -7.6020   -5.4610   45.7090 O.2   328  SER328     -0.2717
    111  CB        -8.6700   -3.0420   47.4300 C.3   328  SER328      0.2103
    112  OG        -7.5470   -2.2100   47.3710 O.3   328  SER328     -0.2182
    113  N         -5.9290   -4.6990   47.0050 N.am  329  GLY329     -0.1956
    114  CA        -4.8160   -5.0310   46.0960 C.3   329  GLY329      0.1869
    115  C         -4.1150   -6.3690   46.3530 C.2   329  GLY329      0.2309
    116  O         -3.0140   -6.6740   45.7970 O.2   329  GLY329     -0.2863
@<TRIPOS>BOND
     1    31    30    1
     2    29    30   ar
     3    29    27   ar
     4    30    28   ar
     5    27    25   ar
     6    28    26   ar
     7    63    61    1
     8    25    26   ar
     9    25    24    1
    10    60    61    2
    11    60    59    1
    12    24    21    1
    13    61    62    1
    14    58    59    1
    15    58    57    1
    16    54    53    1
    17    54    57    1
    18    54    55    1
    19    56    55    2
    20    55    64   am
    21    21    20    1
    22    21    22    1
    23    23    22    2
    24    64    65    1
    25    67    66    2
    26    44    45    1
    27    44    41    1
    28    66    65    1
    29    65    68    1
    30    81    80    2
    31    42    43    2
    32    42    41    1
    33    41    40    1
    34    40    34   am
    35    80    79    1
    36    68    69    1
    37    68    70    1
    38    32    33    1
    39    69    71    1
    40    34    33    1
    41    34    35    2
    42    33    36    1
    43    79    82    1
    44    79    78    1
    45    82    83    1
    46    19    17    1
    47    17    16    1
    48    46    47    1
    49    48    49    2
    50    48    47    1
    51    83    84    1
    52    78    84    1
    53    78    74   am
    54    36    37    1
    55    38    37    2
    56    75    74    2
    57    47    50    1
    58    74    73    1
    59    37    39   am
    60    18    16    1
    61    16    13    1
    62    50    52    1
    63    50    51    1
    64    13    12    1
    65    13    14    1
    66    72    73    1
    67    73    76    1
    68    14    15    2
    69   110   109    2
    70   116   115    2
    71    76    77    1
    72   114   115    1
    73   114   113    1
    74    90    89    1
    75   109   113   am
    76   109   108    1
    77   112   111    1
    78    89    91    1
    79    89    86    1
    80   111   108    1
    81    96    93    1
    82   108   107    1
    83    88    87    2
    84    93    92    1
    85    93    94    1
    86    87    86    1
    87    87    92   am
    88    85    86    1
    89    11    10   ar
    90    11     9   ar
    91    10     8   ar
    92    94    95    2
    93     9     7   ar
    94     8     6   ar
    95     7     6   ar
    96     6     5    1
    97   106   104   ar
    98   106   105   ar
    99   104   102   ar
   100   105   103   ar
   101     1     2    1
   102     5     2    1
   103    99   100    2
   104    99    98    1
   105   102   103   ar
   106   102   101    1
   107     2     3    1
   108    98   101    1
   109    98    97    1
   110     3     4    2
