@<TRIPOS>MOLECULE
tmp/2guiA01.pdb
 119 112 0 0 0
SMALL
GASTEIGER

@<TRIPOS>ATOM
      1  N          1.8120   32.6070   -7.3150 N.3     8  ASP8       -0.1239
      2  CA         1.2810   31.6950   -6.3310 C.3     8  ASP8        0.1674
      3  C          1.9070   30.3370   -6.5360 C.2     8  ASP8        0.2266
      4  O          2.3550   30.0060   -7.6410 O.2     8  ASP8       -0.2867
      5  CB        -0.2400   31.6090   -6.4520 C.3     8  ASP8        0.1410
      6  CG        -0.8490   30.8900   -5.2900 C.2     8  ASP8        0.3668
      7  OD1       -0.5230   31.2650   -4.1440 O.co2   8  ASP8       -0.2456
      8  OD2       -1.6310   29.9540   -5.5270 O.co2   8  ASP8       -0.2456
      9  N          2.4670   21.6990    4.1550 N.3    14  MET14      -0.1245
     10  CA         3.2320   22.6680    4.9380 C.3    14  MET14       0.1570
     11  C          3.3050   22.2210    6.3890 C.2    14  MET14       0.2261
     12  O          2.4070   21.5220    6.8610 O.2    14  MET14      -0.2867
     13  CB         2.5670   24.0440    4.8700 C.3    14  MET14       0.0387
     14  CG         1.1830   24.1040    5.4860 C.3    14  MET14       0.0595
     15  SD         0.3460   25.6090    4.9810 S.3    14  MET14      -0.1393
     16  CE        -1.3070   25.3490    5.6250 C.3    14  MET14       0.0692
     17  N         -7.2730   21.1930   -0.6290 N.3    61  VAL61      -0.1245
     18  CA        -7.2110   22.5780   -1.0640 C.3    61  VAL61       0.1561
     19  C         -7.1370   22.6790   -2.5860 C.2    61  VAL61       0.2260
     20  O         -7.9100   23.4130   -3.2040 O.2    61  VAL61      -0.2867
     21  CB        -5.9990   23.2890   -0.4210 C.3    61  VAL61       0.0252
     22  CG1       -5.7500   24.6540   -1.0570 C.3    61  VAL61       0.0019
     23  CG2       -6.2180   23.4070    1.0860 C.3    61  VAL61       0.0019
     24  N          0.3200   36.5170   -2.0510 N.3    94  HIS94      -0.1226
     25  CA        -0.5980   36.6290   -0.9290 C.3    94  HIS94       0.1752
     26  C         -0.0890   35.7190    0.1770 C.2    94  HIS94       0.2596
     27  O         -0.2040   34.5000    0.0790 O.2    94  HIS94      -0.2718
     28  CB        -2.0200   36.2770   -1.3520 C.3    94  HIS94       0.0759
     29  CG        -3.0580   37.0470   -0.6060 C.ar   94  HIS94       0.0818
     30  ND1       -3.1260   38.4200   -0.6610 N.ar   94  HIS94      -0.2268
     31  CD2       -4.0640   36.6480    0.2080 C.ar   94  HIS94       0.1154
     32  CE1       -4.1320   38.8390    0.0850 C.ar   94  HIS94       0.1986
     33  NE2       -4.7210   37.7830    0.6200 N.ar   94  HIS94      -0.2212
     34  N          0.4680   36.3280    1.2230 N.am   95  ASN95      -0.1974
     35  CA         1.2100   35.6080    2.2780 C.3    95  ASN95       0.1688
     36  C          2.5670   35.2220    1.7040 C.2    95  ASN95       0.2292
     37  O          2.9410   34.0460    1.6430 O.2    95  ASN95      -0.2864
     38  CB         0.4240   34.3950    2.7980 C.3    95  ASN95       0.1181
     39  CG         1.0380   33.7670    4.0390 C.2    95  ASN95       0.2629
     40  OD1        1.8730   34.3630    4.7120 O.2    95  ASN95      -0.2716
     41  ND2        0.6340   32.5390    4.3260 N.am   95  ASN95      -0.0877
     42  N          5.1490   32.4980    2.7230 N.3    98  PHE98      -0.1227
     43  CA         4.8640   31.1080    2.4250 C.3    98  PHE98       0.1736
     44  C          5.5640   30.6780    1.1400 C.2    98  PHE98       0.2595
     45  O          6.3880   29.7630    1.1260 O.2    98  PHE98      -0.2718
     46  CB         3.3650   30.8640    2.2980 C.3    98  PHE98       0.0547
     47  CG         3.0350   29.4530    1.9500 C.ar   98  PHE98      -0.0202
     48  CD1        3.0330   28.4630    2.9380 C.ar   98  PHE98      -0.0042
     49  CD2        2.7640   29.0930    0.6390 C.ar   98  PHE98      -0.0042
     50  CE1        2.7520   27.1350    2.6090 C.ar   98  PHE98      -0.0003
     51  CE2        2.4900   27.7600    0.3000 C.ar   98  PHE98      -0.0003
     52  CZ         2.4730   26.7820    1.2940 C.ar   98  PHE98      -0.0000
     53  N          5.2190   31.3440    0.0460 N.am   99  ASP99      -0.1974
     54  CA         5.7550   30.9560   -1.2530 C.3    99  ASP99       0.1709
     55  C          7.2280   31.2220   -1.3750 C.2    99  ASP99       0.2293
     56  O          7.9440   30.4150   -1.9620 O.2    99  ASP99      -0.2864
     57  CB         5.0040   31.6790   -2.3430 C.3    99  ASP99       0.1436
     58  CG         3.5210   31.4490   -2.2130 C.2    99  ASP99       0.3671
     59  OD1        2.9030   32.0430   -1.2910 O.co2  99  ASP99      -0.2456
     60  OD2        3.0090   30.6400   -2.9990 O.co2  99  ASP99      -0.2456
     61  N         -1.0080   40.2110    1.2310 N.3   127  LEU127     -0.1245
     62  CA        -1.8180   39.9810    2.4160 C.3   127  LEU127      0.1561
     63  C         -1.5050   41.0230    3.4760 C.2   127  LEU127      0.2260
     64  O         -2.4120   41.5180    4.1490 O.2   127  LEU127     -0.2867
     65  CB        -1.6260   38.5550    2.9330 C.3   127  LEU127      0.0270
     66  CG        -2.3940   38.1750    4.1940 C.3   127  LEU127      0.0019
     67  CD1       -3.8850   38.4340    4.0530 C.3   127  LEU127      0.0001
     68  CD2       -2.1530   36.7080    4.4800 C.3   127  LEU127      0.0001
     69  N         -8.4650   37.1130    3.3330 N.3   140  SER140     -0.1202
     70  CA        -8.1890   36.0180    2.3980 C.3   140  SER140      0.2020
     71  C         -8.3910   36.5310    0.9780 C.2   140  SER140      0.2619
     72  O         -9.1130   37.5050    0.7420 O.2   140  SER140     -0.2717
     73  CB        -9.1320   34.8460    2.6230 C.3   140  SER140      0.2103
     74  OG       -10.4480   35.2010    2.2200 O.3   140  SER140     -0.2182
     75  N         -7.7680   35.8560    0.0280 N.am  141  LEU141     -0.1965
     76  CA        -7.9510   36.2090   -1.3610 C.3   141  LEU141      0.1728
     77  C         -9.4480   36.1860   -1.7020 C.2   141  LEU141      0.2616
     78  O         -9.9300   37.0710   -2.4010 O.2   141  LEU141     -0.2715
     79  CB        -7.1600   35.2620   -2.2570 C.3   141  LEU141      0.0311
     80  CG        -7.2020   35.5870   -3.7440 C.3   141  LEU141      0.0022
     81  CD1       -6.7130   37.0090   -4.0090 C.3   141  LEU141      0.0001
     82  CD2       -6.3310   34.5520   -4.4320 C.3   141  LEU141      0.0001
     83  N        -10.1830   35.2070   -1.1770 N.am  142  ASP142     -0.1971
     84  CA       -11.6280   35.1270   -1.4630 C.3   142  ASP142      0.1709
     85  C        -12.3730   36.3370   -0.9040 C.2   142  ASP142      0.2293
     86  O        -13.2600   36.9040   -1.5640 O.2   142  ASP142     -0.2864
     87  CB       -12.2200   33.8440   -0.9050 C.3   142  ASP142      0.1436
     88  CG       -11.8760   32.6300   -1.7470 C.2   142  ASP142      0.3671
     89  OD1      -11.5420   32.8010   -2.9350 O.co2 142  ASP142     -0.2456
     90  OD2      -11.9630   31.5100   -1.2150 O.co2 142  ASP142     -0.2456
     91  N        -12.9380   28.9440   -8.5500 N.3   155  ARG155     -0.1245
     92  CA       -11.9320   28.6570   -7.5230 C.3   155  ARG155      0.1563
     93  C        -12.4190   27.7510   -6.3880 C.2   155  ARG155      0.2260
     94  O        -12.0370   27.9420   -5.2260 O.2   155  ARG155     -0.2867
     95  CB       -11.3560   29.9630   -6.9580 C.3   155  ARG155      0.0307
     96  CG        -9.9860   29.8010   -6.3530 C.3   155  ARG155      0.0489
     97  CD        -9.6230   30.9720   -5.4470 C.3   155  ARG155      0.2205
     98  NE        -8.2930   30.7540   -4.8930 N.pl3 155  ARG155     -0.0865
     99  CZ        -7.8950   31.1670   -3.6950 C.cat 155  ARG155      0.5346
    100  NH1       -8.7430   31.8130   -2.9000 N.pl3 155  ARG155      0.1354
    101  NH2       -6.6640   30.8980   -3.2730 N.pl3 155  ARG155      0.1354
    102  N         -8.2180   25.4790   -5.2920 N.3   158  HIS158     -0.1241
    103  CA        -7.1810   26.4560   -5.5230 C.3   158  HIS158      0.1621
    104  C         -6.2260   25.8860   -6.5610 C.2   158  HIS158      0.2264
    105  O         -5.9890   24.6850   -6.6070 O.2   158  HIS158     -0.2867
    106  CB        -6.4510   26.7330   -4.2170 C.3   158  HIS158      0.0745
    107  CG        -7.2750   27.4690   -3.2010 C.ar  158  HIS158      0.0817
    108  ND1       -6.7190   28.1100   -2.1130 N.ar  158  HIS158     -0.2268
    109  CD2       -8.6120   27.6780   -3.1210 C.ar  158  HIS158      0.1154
    110  CE1       -7.6810   28.6680   -1.3980 C.ar  158  HIS158      0.1986
    111  NE2       -8.8380   28.4190   -1.9860 N.ar  158  HIS158     -0.2212
    112  N         -4.9460   31.1480   -8.9160 N.3   163  ASP163     -0.1239
    113  CA        -4.8220   32.0350   -7.7760 C.3   163  ASP163      0.1674
    114  C         -3.9880   33.2570   -8.0960 C.2   163  ASP163      0.2266
    115  O         -4.2560   34.3430   -7.5900 O.2   163  ASP163     -0.2867
    116  CB        -4.1980   31.3090   -6.5920 C.3   163  ASP163      0.1410
    117  CG        -5.1120   30.2560   -5.9890 C.2   163  ASP163      0.3668
    118  OD1       -6.2470   30.0370   -6.4760 O.co2 163  ASP163     -0.2456
    119  OD2       -4.6910   29.6180   -5.0020 O.co2 163  ASP163     -0.2456
@<TRIPOS>BOND
     1   112   113    1
     2    91    92    1
     3   114   113    1
     4   114   115    2
     5   113   116    1
     6     4     3    2
     7    92    95    1
     8    92    93    1
     9     1     2    1
    10    95    96    1
    11   105   104    2
    12   116   117    1
    13   104   103    1
    14     3     2    1
    15   118   117   ar
    16     5     2    1
    17     5     6    1
    18    93    94    2
    19    96    97    1
    20   117   119   ar
    21     8     6   ar
    22   103   102    1
    23   103   106    1
    24    97    98    1
    25     6     7   ar
    26    98    99    2
    27    82    80    1
    28   106   107    1
    29    81    80    1
    30    80    79    1
    31    99   101    1
    32    99   100    1
    33    20    19    2
    34   107   109   ar
    35   107   108   ar
    36   109   111   ar
    37    60    58   ar
    38    89    88   ar
    39    19    18    1
    40    78    77    2
    41    57    58    1
    42    57    54    1
    43    79    76    1
    44    58    59   ar
    45   108   110   ar
    46    24    25    1
    47   111   110   ar
    48    56    55    2
    49    88    90   ar
    50    88    87    1
    51    77    76    1
    52    77    83   am
    53    86    85    2
    54    84    83    1
    55    84    87    1
    56    84    85    1
    57    55    54    1
    58    76    75    1
    59    28    25    1
    60    28    29    1
    61    54    53    1
    62    18    17    1
    63    18    21    1
    64    22    21    1
    65    25    26    1
    66    30    29   ar
    67    30    32   ar
    68    29    31   ar
    69    21    23    1
    70    75    71   am
    71    53    44   am
    72    27    26    2
    73    32    33   ar
    74    26    34   am
    75    31    33   ar
    76    51    49   ar
    77    51    52   ar
    78    49    47   ar
    79    72    71    2
    80    71    70    1
    81    45    44    2
    82    44    43    1
    83    34    35    1
    84    61    62    1
    85    52    50   ar
    86    37    36    2
    87    36    35    1
    88    47    46    1
    89    47    48   ar
    90    74    73    1
    91    35    38    1
    92    46    43    1
    93    70    73    1
    94    70    69    1
    95    62    65    1
    96    62    63    1
    97    43    42    1
    98    50    48   ar
    99    38    39    1
   100    65    66    1
   101    63    64    2
   102    39    41   am
   103    39    40    2
   104    67    66    1
   105     9    10    1
   106    66    68    1
   107    13    10    1
   108    13    14    1
   109    10    11    1
   110    15    14    1
   111    15    16    1
   112    11    12    2
