@<TRIPOS>MOLECULE
tmp/2guiA00.pdb
 140 135 0 0 0
SMALL
GASTEIGER

@<TRIPOS>ATOM
      1  N          1.8120   32.6070   -7.3150 N.3     8  ASP8       -0.1225
      2  CA         1.2810   31.6950   -6.3310 C.3     8  ASP8        0.1805
      3  C          1.9070   30.3370   -6.5360 C.2     8  ASP8        0.2598
      4  O          2.3550   30.0060   -7.6410 O.2     8  ASP8       -0.2718
      5  CB        -0.2400   31.6090   -6.4520 C.3     8  ASP8        0.1424
      6  CG        -0.8490   30.8900   -5.2900 C.2     8  ASP8        0.3668
      7  OD1       -0.5230   31.2650   -4.1440 O.co2   8  ASP8       -0.2456
      8  OD2       -1.6310   29.9540   -5.5270 O.co2   8  ASP8       -0.2456
      9  N          1.9090   29.5310   -5.4870 N.am    9  THR9       -0.1939
     10  CA         2.3440   28.1420   -5.6310 C.3     9  THR9        0.2028
     11  C          1.3290   27.2260   -4.9700 C.2     9  THR9        0.2642
     12  O          0.6080   27.6420   -4.0560 O.2     9  THR9       -0.2714
     13  CB         3.7250   27.8590   -4.9770 C.3     9  THR9        0.1808
     14  OG1        3.6330   28.0560   -3.5610 O.3     9  THR9       -0.2208
     15  CG2        4.8230   28.7470   -5.5560 C.3     9  THR9        0.0379
     16  N          1.2870   25.9810   -5.4250 N.am   10  GLU10      -0.1963
     17  CA         0.6760   24.9160   -4.6350 C.3    10  GLU10       0.1733
     18  C          1.7940   23.9730   -4.2490 C.2    10  GLU10       0.2617
     19  O          2.8140   23.8440   -4.9440 O.2    10  GLU10      -0.2715
     20  CB        -0.3960   24.1410   -5.4000 C.3    10  GLU10       0.0429
     21  CG        -1.4860   25.0270   -5.9930 C.3    10  GLU10       0.1163
     22  CD        -2.1740   25.9330   -4.9780 C.2    10  GLU10       0.3649
     23  OE1       -2.3090   25.5530   -3.7910 O.co2  10  GLU10      -0.2457
     24  OE2       -2.5880   27.0470   -5.3880 O.co2  10  GLU10      -0.2457
     25  N          1.5820   23.3160   -3.1250 N.am   11  THR11      -0.1951
     26  CA         2.6060   22.4650   -2.5520 C.3    11  THR11       0.1897
     27  C          2.0260   21.1610   -2.0650 C.2    11  THR11       0.2313
     28  O          0.8090   20.9440   -2.0810 O.2    11  THR11      -0.2863
     29  CB         3.2860   23.1600   -1.3510 C.3    11  THR11       0.1794
     30  OG1        2.3530   23.2760   -0.2680 O.3    11  THR11      -0.2208
     31  CG2        3.8110   24.5520   -1.7260 C.3    11  THR11       0.0378
     32  N          1.9570   20.4130    0.8380 N.3    13  GLY13      -0.1210
     33  CA         1.4990   20.7280    2.1770 C.3    13  GLY13       0.1956
     34  C          2.4290   21.7260    2.8260 C.2    13  GLY13       0.2611
     35  O          3.1080   22.4970    2.1540 O.2    13  GLY13      -0.2717
     36  N          2.4670   21.6990    4.1550 N.am   14  MET14      -0.1979
     37  CA         3.2320   22.6680    4.9380 C.3    14  MET14       0.1605
     38  C          3.3050   22.2210    6.3890 C.2    14  MET14       0.2287
     39  O          2.4070   21.5220    6.8610 O.2    14  MET14      -0.2864
     40  CB         2.5670   24.0440    4.8700 C.3    14  MET14       0.0413
     41  CG         1.1830   24.1040    5.4860 C.3    14  MET14       0.0598
     42  SD         0.3460   25.6090    4.9810 S.3    14  MET14      -0.1393
     43  CE        -1.3070   25.3490    5.6250 C.3    14  MET14       0.0692
     44  N         -4.5730   17.0540    3.4460 N.3    57  GLU57      -0.1231
     45  CA        -5.0580   18.4150    3.6500 C.3    57  GLU57       0.1699
     46  C         -4.7910   19.2730    2.4170 C.2    57  GLU57       0.2592
     47  O         -5.6850   19.9760    1.9360 O.2    57  GLU57      -0.2718
     48  CB        -4.4170   19.0610    4.8740 C.3    57  GLU57       0.0402
     49  CG        -4.9520   20.4550    5.1620 C.3    57  GLU57       0.1161
     50  CD        -4.2070   21.1580    6.2770 C.2    57  GLU57       0.3649
     51  OE1       -3.6560   20.4660    7.1610 O.co2  57  GLU57      -0.2457
     52  OE2       -4.1900   22.4050    6.2770 O.co2  57  GLU57      -0.2457
     53  N         -3.5550   19.2180    1.9250 N.am   58  ALA58      -0.1980
     54  CA        -3.1700   19.9830    0.7370 C.3    58  ALA58       0.1597
     55  C         -4.0220   19.5710   -0.4590 C.2    58  ALA58       0.2287
     56  O         -4.4930   20.4300   -1.2120 O.2    58  ALA58      -0.2864
     57  CB        -1.6820   19.8110    0.4320 C.3    58  ALA58       0.0319
     58  N         -7.2730   21.1930   -0.6290 N.3    61  VAL61      -0.1231
     59  CA        -7.2110   22.5780   -1.0640 C.3    61  VAL61       0.1692
     60  C         -7.1370   22.6790   -2.5860 C.2    61  VAL61       0.2592
     61  O         -7.9100   23.4130   -3.2040 O.2    61  VAL61      -0.2718
     62  CB        -5.9990   23.2890   -0.4210 C.3    61  VAL61       0.0266
     63  CG1       -5.7500   24.6540   -1.0570 C.3    61  VAL61       0.0020
     64  CG2       -6.2180   23.4070    1.0860 C.3    61  VAL61       0.0020
     65  N         -6.2200   21.9270   -3.1870 N.am   62  HIS62      -0.1976
     66  CA        -5.9500   22.1070   -4.6030 C.3    62  HIS62       0.1656
     67  C         -6.3680   20.9700   -5.5160 C.2    62  HIS62       0.2291
     68  O         -6.4000   21.1330   -6.7380 O.2    62  HIS62      -0.2864
     69  CB        -4.4760   22.4620   -4.8320 C.3    62  HIS62       0.0771
     70  CG        -3.5080   21.4850   -4.2360 C.ar   62  HIS62       0.0820
     71  ND1       -3.5090   20.1470   -4.5590 N.ar   62  HIS62      -0.2267
     72  CD2       -2.4810   21.6580   -3.3680 C.ar   62  HIS62       0.1154
     73  CE1       -2.5430   19.5330   -3.9030 C.ar   62  HIS62       0.1986
     74  NE2       -1.8970   20.4290   -3.1800 N.ar   62  HIS62      -0.2212
     75  N          0.3200   36.5170   -2.0510 N.3    94  HIS94      -0.1226
     76  CA        -0.5980   36.6290   -0.9290 C.3    94  HIS94       0.1752
     77  C         -0.0890   35.7190    0.1770 C.2    94  HIS94       0.2596
     78  O         -0.2040   34.5000    0.0790 O.2    94  HIS94      -0.2718
     79  CB        -2.0200   36.2770   -1.3520 C.3    94  HIS94       0.0759
     80  CG        -3.0580   37.0470   -0.6060 C.ar   94  HIS94       0.0818
     81  ND1       -3.1260   38.4200   -0.6610 N.ar   94  HIS94      -0.2268
     82  CD2       -4.0640   36.6480    0.2080 C.ar   94  HIS94       0.1154
     83  CE1       -4.1320   38.8390    0.0850 C.ar   94  HIS94       0.1986
     84  NE2       -4.7210   37.7830    0.6200 N.ar   94  HIS94      -0.2212
     85  N          0.4680   36.3280    1.2230 N.am   95  ASN95      -0.1974
     86  CA         1.2100   35.6080    2.2780 C.3    95  ASN95       0.1688
     87  C          2.5670   35.2220    1.7040 C.2    95  ASN95       0.2292
     88  O          2.9410   34.0460    1.6430 O.2    95  ASN95      -0.2864
     89  CB         0.4240   34.3950    2.7980 C.3    95  ASN95       0.1181
     90  CG         1.0380   33.7670    4.0390 C.2    95  ASN95       0.2629
     91  OD1        1.8730   34.3630    4.7120 O.2    95  ASN95      -0.2716
     92  ND2        0.6340   32.5390    4.3260 N.am   95  ASN95      -0.0877
     93  N          5.1490   32.4980    2.7230 N.3    98  PHE98      -0.1227
     94  CA         4.8640   31.1080    2.4250 C.3    98  PHE98       0.1736
     95  C          5.5640   30.6780    1.1400 C.2    98  PHE98       0.2595
     96  O          6.3880   29.7630    1.1260 O.2    98  PHE98      -0.2718
     97  CB         3.3650   30.8640    2.2980 C.3    98  PHE98       0.0547
     98  CG         3.0350   29.4530    1.9500 C.ar   98  PHE98      -0.0202
     99  CD1        3.0330   28.4630    2.9380 C.ar   98  PHE98      -0.0042
    100  CD2        2.7640   29.0930    0.6390 C.ar   98  PHE98      -0.0042
    101  CE1        2.7520   27.1350    2.6090 C.ar   98  PHE98      -0.0003
    102  CE2        2.4900   27.7600    0.3000 C.ar   98  PHE98      -0.0003
    103  CZ         2.4730   26.7820    1.2940 C.ar   98  PHE98      -0.0000
    104  N          5.2190   31.3440    0.0460 N.am   99  ASP99      -0.1974
    105  CA         5.7550   30.9560   -1.2530 C.3    99  ASP99       0.1709
    106  C          7.2280   31.2220   -1.3750 C.2    99  ASP99       0.2293
    107  O          7.9440   30.4150   -1.9620 O.2    99  ASP99      -0.2864
    108  CB         5.0040   31.6790   -2.3430 C.3    99  ASP99       0.1436
    109  CG         3.5210   31.4490   -2.2130 C.2    99  ASP99       0.3671
    110  OD1        2.9030   32.0430   -1.2910 O.co2  99  ASP99      -0.2456
    111  OD2        3.0090   30.6400   -2.9990 O.co2  99  ASP99      -0.2456
    112  N        -12.9380   28.9440   -8.5500 N.3   155  ARG155     -0.1245
    113  CA       -11.9320   28.6570   -7.5230 C.3   155  ARG155      0.1563
    114  C        -12.4190   27.7510   -6.3880 C.2   155  ARG155      0.2260
    115  O        -12.0370   27.9420   -5.2260 O.2   155  ARG155     -0.2867
    116  CB       -11.3560   29.9630   -6.9580 C.3   155  ARG155      0.0307
    117  CG        -9.9860   29.8010   -6.3530 C.3   155  ARG155      0.0489
    118  CD        -9.6230   30.9720   -5.4470 C.3   155  ARG155      0.2205
    119  NE        -8.2930   30.7540   -4.8930 N.pl3 155  ARG155     -0.0865
    120  CZ        -7.8950   31.1670   -3.6950 C.cat 155  ARG155      0.5346
    121  NH1       -8.7430   31.8130   -2.9000 N.pl3 155  ARG155      0.1354
    122  NH2       -6.6640   30.8980   -3.2730 N.pl3 155  ARG155      0.1354
    123  N         -8.2180   25.4790   -5.2920 N.3   158  HIS158     -0.1241
    124  CA        -7.1810   26.4560   -5.5230 C.3   158  HIS158      0.1621
    125  C         -6.2260   25.8860   -6.5610 C.2   158  HIS158      0.2264
    126  O         -5.9890   24.6850   -6.6070 O.2   158  HIS158     -0.2867
    127  CB        -6.4510   26.7330   -4.2170 C.3   158  HIS158      0.0745
    128  CG        -7.2750   27.4690   -3.2010 C.ar  158  HIS158      0.0817
    129  ND1       -6.7190   28.1100   -2.1130 N.ar  158  HIS158     -0.2268
    130  CD2       -8.6120   27.6780   -3.1210 C.ar  158  HIS158      0.1154
    131  CE1       -7.6810   28.6680   -1.3980 C.ar  158  HIS158      0.1986
    132  NE2       -8.8380   28.4190   -1.9860 N.ar  158  HIS158     -0.2212
    133  N         -4.9460   31.1480   -8.9160 N.3   163  ASP163     -0.1239
    134  CA        -4.8220   32.0350   -7.7760 C.3   163  ASP163      0.1674
    135  C         -3.9880   33.2570   -8.0960 C.2   163  ASP163      0.2266
    136  O         -4.2560   34.3430   -7.5900 O.2   163  ASP163     -0.2867
    137  CB        -4.1980   31.3090   -6.5920 C.3   163  ASP163      0.1410
    138  CG        -5.1120   30.2560   -5.9890 C.2   163  ASP163      0.3668
    139  OD1       -6.2470   30.0370   -6.4760 O.co2 163  ASP163     -0.2456
    140  OD2       -4.6910   29.6180   -5.0020 O.co2 163  ASP163     -0.2456
@<TRIPOS>BOND
     1   133   134    1
     2   112   113    1
     3   135   134    1
     4   135   136    2
     5   134   137    1
     6     4     3    2
     7   113   116    1
     8   113   114    1
     9     1     2    1
    10   116   117    1
    11    68    67    2
    12   126   125    2
    13   137   138    1
    14   125   124    1
    15     3     2    1
    16     3     9   am
    17   139   138   ar
    18     5     2    1
    19     5     6    1
    20   114   115    2
    21   117   118    1
    22    21    20    1
    23    21    22    1
    24   138   140   ar
    25    10     9    1
    26    10    13    1
    27    10    11    1
    28    15    13    1
    29     8     6   ar
    30   124   123    1
    31   124   127    1
    32    67    66    1
    33   118   119    1
    34    16    11   am
    35    16    17    1
    36    20    17    1
    37    24    22   ar
    38     6     7   ar
    39    22    23   ar
    40    13    14    1
    41    11    12    2
    42    19    18    2
    43   119   120    2
    44    69    66    1
    45    69    70    1
    46    17    18    1
    47    66    65    1
    48    71    70   ar
    49    71    73   ar
    50    18    25   am
    51    70    72   ar
    52   127   128    1
    53    73    74   ar
    54   120   122    1
    55   120   121    1
    56    72    74   ar
    57    61    60    2
    58   128   130   ar
    59   128   129   ar
    60    65    60   am
    61    25    26    1
    62   130   132   ar
    63   111   109   ar
    64    60    59    1
    65    26    27    1
    66    26    29    1
    67   108   109    1
    68   108   105    1
    69   109   110   ar
    70   129   131   ar
    71    28    27    2
    72    75    76    1
    73   132   131   ar
    74   107   106    2
    75    31    29    1
    76   106   105    1
    77    79    76    1
    78    79    80    1
    79    29    30    1
    80   105   104    1
    81    56    55    2
    82    59    58    1
    83    59    62    1
    84    63    62    1
    85    76    77    1
    86    81    80   ar
    87    81    83   ar
    88    80    82   ar
    89    55    54    1
    90    62    64    1
    91   104    95   am
    92    78    77    2
    93    83    84   ar
    94    77    85   am
    95    82    84   ar
    96   102   100   ar
    97   102   103   ar
    98    57    54    1
    99   100    98   ar
   100    54    53    1
   101    32    33    1
   102    96    95    2
   103    95    94    1
   104    85    86    1
   105   103   101   ar
   106    88    87    2
   107    87    86    1
   108    53    46   am
   109    47    46    2
   110    98    97    1
   111    98    99   ar
   112    35    34    2
   113    33    34    1
   114    86    89    1
   115    97    94    1
   116    46    45    1
   117    94    93    1
   118   101    99   ar
   119    89    90    1
   120    34    36   am
   121    44    45    1
   122    45    48    1
   123    90    92   am
   124    90    91    2
   125    36    37    1
   126    40    37    1
   127    40    41    1
   128    48    49    1
   129    37    38    1
   130    42    41    1
   131    42    43    1
   132    49    50    1
   133    50    52   ar
   134    50    51   ar
   135    38    39    2
