@<TRIPOS>MOLECULE
tmp/2gupA00.pdb
 109 101 0 0 0
SMALL
GASTEIGER

@<TRIPOS>ATOM
      1  N          5.1710   26.1060    2.8060 N.3     6  ASP6       -0.1239
      2  CA         4.9820   27.4160    3.5560 C.3     6  ASP6        0.1674
      3  C          4.1830   28.2630    2.5970 C.2     6  ASP6        0.2266
      4  O          4.6460   28.5000    1.5080 O.2     6  ASP6       -0.2867
      5  CB         6.3550   28.0120    3.9360 C.3     6  ASP6        0.1410
      6  CG         6.2770   29.5220    4.3710 C.2     6  ASP6        0.3668
      7  OD1        5.1080   30.0140    4.4620 O.co2   6  ASP6       -0.2456
      8  OD2        7.3550   30.1700    4.6760 O.co2   6  ASP6       -0.2456
      9  N          4.1850   36.5030    0.2620 N.3    10  THR10      -0.1218
     10  CA         5.4420   36.6950   -0.4750 C.3    10  THR10       0.1862
     11  C          5.8030   35.5290   -1.4020 C.2    10  THR10       0.2287
     12  O          6.8440   35.6020   -2.0980 O.2    10  THR10      -0.2866
     13  CB         6.6060   37.0410    0.4220 C.3    10  THR10       0.1770
     14  OG1        6.8930   35.9660    1.3190 O.3    10  THR10      -0.2211
     15  CG2        6.3210   38.3860    1.2790 C.3    10  THR10       0.0375
     16  N          6.5480   28.1110   -0.7180 N.3    13  LYS13      -0.1245
     17  CA         7.7650   27.3130   -0.7030 C.3    13  LYS13       0.1561
     18  C          7.3590   25.8840   -0.5450 C.2    13  LYS13       0.2260
     19  O          6.4520   25.5930    0.2250 O.2    13  LYS13      -0.2867
     20  CB         8.6470   27.6260    0.4880 C.3    13  LYS13       0.0271
     21  CG         9.0530   29.2610    0.5340 C.3    13  LYS13       0.0035
     22  CD         9.7950   29.6050    1.8320 C.3    13  LYS13       0.0206
     23  CE        10.9710   28.7320    2.1150 C.3    13  LYS13       0.1093
     24  NZ        11.5560   29.4510    3.3230 N.3    13  LYS13      -0.1314
     25  N          1.4880   30.3790   10.9440 N.3    98  ASP98      -0.1225
     26  CA         2.8990   30.6300   10.7480 C.3    98  ASP98       0.1805
     27  C          3.7000   31.0190   12.0010 C.2    98  ASP98       0.2597
     28  O          4.8530   30.5270   12.2010 O.2    98  ASP98      -0.2718
     29  CB         3.1720   31.5200    9.5530 C.3    98  ASP98       0.1424
     30  CG         2.4990   32.9230    9.6470 C.2    98  ASP98       0.3668
     31  OD1        2.1460   33.4220   10.7280 O.co2  98  ASP98      -0.2456
     32  OD2        2.2630   33.4470    8.5550 O.co2  98  ASP98      -0.2456
     33  N          3.1040   31.8600   12.8690 N.am   99  ALA99      -0.1979
     34  CA         3.8490   32.3040   14.0690 C.3    99  ALA99       0.1597
     35  C          4.0090   31.1010   15.0280 C.2    99  ALA99       0.2287
     36  O          5.0250   30.9700   15.7140 O.2    99  ALA99      -0.2864
     37  CB         3.1500   33.3640   14.7400 C.3    99  ALA99       0.0319
     38  N          6.9730   29.1390   13.6980 N.3   102  VAL102     -0.1245
     39  CA         8.2210   29.7040   14.1480 C.3   102  VAL102      0.1561
     40  C          8.5640   29.2890   15.5820 C.2   102  VAL102      0.2260
     41  O          9.7220   28.9010   15.8700 O.2   102  VAL102     -0.2867
     42  CB         8.1450   31.3090   14.0890 C.3   102  VAL102      0.0252
     43  CG1        9.4050   31.8800   14.5460 C.3   102  VAL102      0.0019
     44  CG2        7.8860   31.7550   12.6600 C.3   102  VAL102      0.0019
     45  N          7.3630   36.9730   17.4510 N.3   120  VAL120     -0.1245
     46  CA         7.7710   37.1300   16.0410 C.3   120  VAL120      0.1561
     47  C          7.5660   38.5550   15.6830 C.2   120  VAL120      0.2260
     48  O          6.4330   39.0060   15.6520 O.2   120  VAL120     -0.2867
     49  CB         6.9140   36.3530   15.0960 C.3   120  VAL120      0.0252
     50  CG1        7.5360   36.3620   13.5570 C.3   120  VAL120      0.0019
     51  CG2        6.8520   34.8500   15.6180 C.3   120  VAL120      0.0019
     52  N          7.6080   41.4970   13.1890 N.3   122  GLY122     -0.1225
     53  CA         7.6590   41.9490   11.7750 C.3   122  GLY122      0.1811
     54  C          6.9630   43.2900   11.6310 C.2   122  GLY122      0.2280
     55  O          7.2190   44.2230   12.4100 O.2   122  GLY122     -0.2866
     56  N         11.8490   36.2300   17.1070 N.3   225  GLY225     -0.1210
     57  CA        11.9320   35.8340   15.6920 C.3   225  GLY225      0.1956
     58  C         11.5420   37.0290   14.8270 C.2   225  GLY225      0.2612
     59  O         11.2870   38.1140   15.3150 O.2   225  GLY225     -0.2717
     60  N         11.4560   36.7680   13.5320 N.am  226  GLY226     -0.1942
     61  CA        11.2460   37.7670   12.5300 C.3   226  GLY226      0.2014
     62  C         12.6340   38.2890   12.0880 C.2   226  GLY226      0.2639
     63  O         13.6650   38.0800   12.7040 O.2   226  GLY226     -0.2714
     64  N         12.6420   38.9850   10.9750 N.am  227  SER227     -0.1949
     65  CA        13.8590   39.4740   10.3680 C.3   227  SER227      0.1924
     66  C         14.7930   40.2610   11.3350 C.2   227  SER227      0.2314
     67  O         16.0340   40.1080   11.3560 O.2   227  SER227     -0.2863
     68  CB        13.3350   40.4560    9.2550 C.3   227  SER227      0.2116
     69  OG        14.4260   41.1790    8.7400 O.3   227  SER227     -0.2180
     70  N         16.0770   30.0600   13.6290 N.3   263  TYR263     -0.1227
     71  CA        15.8150   30.1280   12.2280 C.3   263  TYR263      0.1736
     72  C         15.0460   31.3380   11.8730 C.2   263  TYR263      0.2595
     73  O         14.3990   31.9160   12.7400 O.2   263  TYR263     -0.2718
     74  CB        14.9370   28.9600   11.8580 C.3   263  TYR263      0.0548
     75  CG        15.6330   27.6000   12.1410 C.ar  263  TYR263     -0.0200
     76  CD1       16.7290   27.1740   11.3680 C.ar  263  TYR263     -0.0009
     77  CD2       15.1620   26.7600   13.1780 C.ar  263  TYR263     -0.0009
     78  CE1       17.3670   25.8110   11.6060 C.ar  263  TYR263      0.0417
     79  CE2       15.7440   25.4320   13.3870 C.ar  263  TYR263      0.0417
     80  CZ        16.8470   25.0260   12.6170 C.ar  263  TYR263      0.1957
     81  OH        17.4560   23.7860   12.8460 O.3   263  TYR263     -0.2866
     82  N         15.0360   31.6670   10.5890 N.am  264  HIS264     -0.1961
     83  CA        14.1580   32.7630   10.0810 C.3   264  HIS264      0.1787
     84  C         13.6640   32.4920    8.7020 C.2   264  HIS264      0.2620
     85  O         12.4460   32.2300    8.4730 O.2   264  HIS264     -0.2715
     86  CB        14.8460   34.1170   10.2450 C.3   264  HIS264      0.0785
     87  CG        14.1750   35.2430    9.4770 C.ar  264  HIS264      0.0821
     88  ND1       12.9540   35.7780    9.8490 N.ar  264  HIS264     -0.2267
     89  CD2       14.5800   35.9590    8.3900 C.ar  264  HIS264      0.1154
     90  CE1       12.6110   36.7250    8.9910 C.ar  264  HIS264      0.1986
     91  NE2       13.5940   36.8890    8.1150 N.ar  264  HIS264     -0.2212
     92  N         14.5590   32.4370    7.7340 N.am  265  ALA265     -0.1977
     93  CA        14.1420   32.3220    6.3700 C.3   265  ALA265      0.1597
     94  C         13.3680   30.9830    6.1900 C.2   265  ALA265      0.2287
     95  O         12.3400   30.9680    5.4710 O.2   265  ALA265     -0.2864
     96  CB        15.3470   32.3640    5.3740 C.3   265  ALA265      0.0319
     97  N         12.2000   29.1560    8.8360 N.3   267  ALA267     -0.1231
     98  CA        11.5800   28.8040   10.1630 C.3   267  ALA267      0.1694
     99  C         10.2030   28.1710   10.0260 C.2   267  ALA267      0.2592
    100  O          9.8480   27.1990   10.8630 O.2   267  ALA267     -0.2718
    101  CB        11.4580   30.0980   11.1420 C.3   267  ALA267      0.0304
    102  N          9.3760   28.6400    9.0610 N.am  268  ASN268     -0.1974
    103  CA         8.0140   28.0480    8.8890 C.3   268  ASN268      0.1688
    104  C          8.1210   26.5530    8.4110 C.2   268  ASN268      0.2292
    105  O          7.2430   25.7260    8.6860 O.2   268  ASN268     -0.2864
    106  CB         7.1990   28.8300    7.8620 C.3   268  ASN268      0.1181
    107  CG         6.9200   30.3100    8.3150 C.2   268  ASN268      0.2629
    108  OD1        7.0810   30.5770    9.4710 O.2   268  ASN268     -0.2716
    109  ND2        6.4540   31.2410    7.3910 N.am  268  ASN268     -0.0877
@<TRIPOS>BOND
     1    12    11    2
     2    11    10    1
     3    16    17    1
     4    17    18    1
     5    17    20    1
     6    18    19    2
     7    10     9    1
     8    10    13    1
     9    13    15    1
    10    13    14    1
    11    20    21    1
    12    21    22    1
    13     4     3    2
    14    22    23    1
    15    23    24    1
    16     3     2    1
    17     1     2    1
    18     2     5    1
    19     5     6    1
    20     6     7   ar
    21     6     8   ar
    22    96    93    1
    23    95    94    2
    24    94    93    1
    25    93    92    1
    26   109   107   am
    27    92    84   am
    28   106   107    1
    29   106   103    1
    30    91    89   ar
    31    91    90   ar
    32   107   108    2
    33    89    87   ar
    34   104   105    2
    35   104   103    1
    36    85    84    2
    37    32    30   ar
    38    84    83    1
    39    69    68    1
    40    97    98    1
    41   103   102    1
    42    90    88   ar
    43   102    99   am
    44    68    65    1
    45    87    88   ar
    46    87    86    1
    47    29    30    1
    48    29    26    1
    49    30    31   ar
    50    99    98    1
    51    99   100    2
    52    83    86    1
    53    83    82    1
    54    98   101    1
    55    65    64    1
    56    65    66    1
    57    82    72   am
    58    26    25    1
    59    26    27    1
    60    64    62   am
    61    66    67    2
    62    76    78   ar
    63    76    75   ar
    64    78    80   ar
    65    54    53    1
    66    54    55    2
    67    53    52    1
    68    74    75    1
    69    74    71    1
    70    72    71    1
    71    72    73    2
    72    27    28    2
    73    27    33   am
    74    62    61    1
    75    62    63    2
    76    75    77   ar
    77    71    70    1
    78    61    60    1
    79    80    81    1
    80    80    79   ar
    81    44    42    1
    82    33    34    1
    83    77    79   ar
    84    60    58   am
    85    50    49    1
    86    38    39    1
    87    34    37    1
    88    34    35    1
    89    42    39    1
    90    42    43    1
    91    39    40    1
    92    58    59    2
    93    58    57    1
    94    35    36    2
    95    49    51    1
    96    49    46    1
    97    40    41    2
    98    48    47    2
    99    47    46    1
   100    57    56    1
   101    46    45    1
