@<TRIPOS>MOLECULE
tmp/2gv6A00.pdb
 181 178 0 0 0
SMALL
GASTEIGER

@<TRIPOS>ATOM
      1  N          9.2850   62.0010   18.4350 N.3    42  HIS42      -0.1241
      2  CA         9.6390   63.2420   19.1000 C.3    42  HIS42       0.1621
      3  C         10.5420   64.1420   18.2770 C.2    42  HIS42       0.2264
      4  O         10.6890   65.3240   18.5860 O.2    42  HIS42      -0.2867
      5  CB        10.2450   62.9840   20.4950 C.3    42  HIS42       0.0745
      6  CG        11.6900   62.5880   20.4900 C.ar   42  HIS42       0.0817
      7  ND1       12.1060   61.2750   20.5920 N.ar   42  HIS42      -0.2268
      8  CD2       12.8200   63.3330   20.4260 C.ar   42  HIS42       0.1154
      9  CE1       13.4270   61.2290   20.5910 C.ar   42  HIS42       0.1986
     10  NE2       13.8860   62.4650   20.4910 N.ar   42  HIS42      -0.2212
     11  N          8.2990   67.2300   16.1240 N.3    45  ILE45      -0.1245
     12  CA         7.3360   68.0690   16.8180 C.3    45  ILE45       0.1561
     13  C          7.6810   69.5460   16.6040 C.2    45  ILE45       0.2260
     14  O          8.8020   69.9670   16.8650 O.2    45  ILE45      -0.2867
     15  CB         7.3550   67.7650   18.3360 C.3    45  ILE45       0.0252
     16  CG1        6.9900   66.2980   18.5720 C.3    45  ILE45       0.0019
     17  CG2        6.4120   68.7140   19.0800 C.3    45  ILE45       0.0019
     18  CD1        6.8860   65.9380   20.0400 C.3    45  ILE45       0.0001
     19  N          8.0360   73.5040   17.1650 N.3    47  ASP47      -0.1239
     20  CA         8.2810   74.3060   18.3560 C.3    47  ASP47       0.1674
     21  C          8.0340   75.7260   17.8430 C.2    47  ASP47       0.2266
     22  O          7.8480   75.9010   16.6460 O.2    47  ASP47      -0.2867
     23  CB         9.6850   74.0980   18.9430 C.3    47  ASP47       0.1410
     24  CG        10.7880   74.6660   18.0890 C.2    47  ASP47       0.3668
     25  OD1       10.5110   75.4180   17.1260 O.co2  47  ASP47      -0.2456
     26  OD2       11.9570   74.3550   18.4090 O.co2  47  ASP47      -0.2456
     27  N          9.2630   71.2970   12.7460 N.3    52  TYR52      -0.1241
     28  CA         9.8420   69.9710   12.5810 C.3    52  TYR52       0.1605
     29  C          8.8810   68.9190   12.0510 C.2    52  TYR52       0.2264
     30  O          9.3210   67.8840   11.5520 O.2    52  TYR52      -0.2867
     31  CB        10.4380   69.5130   13.9050 C.3    52  TYR52       0.0534
     32  CG        11.6120   70.3690   14.3070 C.ar   52  TYR52      -0.0201
     33  CD1       12.8610   70.1930   13.7130 C.ar   52  TYR52      -0.0009
     34  CD2       11.4640   71.3980   15.2400 C.ar   52  TYR52      -0.0009
     35  CE1       13.9330   71.0150   14.0400 C.ar   52  TYR52       0.0417
     36  CE2       12.5280   72.2270   15.5630 C.ar   52  TYR52       0.0417
     37  CZ        13.7550   72.0260   14.9630 C.ar   52  TYR52       0.1957
     38  OH        14.8160   72.8280   15.3040 O.3    52  TYR52      -0.2866
     39  N          6.5760   60.0610   26.2410 N.3    94  PHE94      -0.1241
     40  CA         7.3450   59.5480   25.1220 C.3    94  PHE94       0.1605
     41  C          6.8960   58.1440   24.7260 C.2    94  PHE94       0.2264
     42  O          7.6190   57.4190   24.0380 O.2    94  PHE94      -0.2867
     43  CB         8.8460   59.5660   25.4440 C.3    94  PHE94       0.0534
     44  CG         9.5370   60.8280   25.0130 C.ar   94  PHE94      -0.0203
     45  CD1        8.9470   62.0720   25.2350 C.ar   94  PHE94      -0.0042
     46  CD2       10.7610   60.7770   24.3610 C.ar   94  PHE94      -0.0042
     47  CE1        9.5720   63.2500   24.8040 C.ar   94  PHE94      -0.0003
     48  CE2       11.3880   61.9410   23.9310 C.ar   94  PHE94      -0.0003
     49  CZ        10.7940   63.1810   24.1500 C.ar   94  PHE94      -0.0000
     50  N         27.8620   63.1160   27.5930 N.3   141  TYR141     -0.1241
     51  CA        26.6990   63.8850   28.0210 C.3   141  TYR141      0.1605
     52  C         27.2110   65.3200   28.1810 C.2   141  TYR141      0.2264
     53  O         28.2360   65.5510   28.8190 O.2   141  TYR141     -0.2867
     54  CB        26.1370   63.3770   29.3520 C.3   141  TYR141      0.0534
     55  CG        25.0760   64.3030   29.8970 C.ar  141  TYR141     -0.0201
     56  CD1       23.7910   64.3140   29.3560 C.ar  141  TYR141     -0.0009
     57  CD2       25.3900   65.2540   30.8750 C.ar  141  TYR141     -0.0009
     58  CE1       22.8440   65.2570   29.7670 C.ar  141  TYR141      0.0417
     59  CE2       24.4530   66.2000   31.2910 C.ar  141  TYR141      0.0417
     60  CZ        23.1840   66.2000   30.7320 C.ar  141  TYR141      0.1957
     61  OH        22.2650   67.1520   31.1160 O.3   141  TYR141     -0.2866
     62  N         26.2580   53.9820   25.6820 N.3   185  ASP185     -0.1225
     63  CA        24.8600   54.3660   25.6160 C.3   185  ASP185      0.1805
     64  C         24.6750   55.3590   24.4730 C.2   185  ASP185      0.2598
     65  O         25.6330   55.9820   24.0110 O.2   185  ASP185     -0.2718
     66  CB        24.4820   55.0150   26.9660 C.3   185  ASP185      0.1424
     67  CG        22.9830   55.2510   27.1370 C.2   185  ASP185      0.3668
     68  OD1       22.1670   54.5850   26.4720 O.co2 185  ASP185     -0.2456
     69  OD2       22.6260   56.1020   27.9750 O.co2 185  ASP185     -0.2456
     70  N         23.4420   55.4940   23.9990 N.am  186  SER186     -0.1938
     71  CA        23.1640   56.4650   22.9480 C.3   186  SER186      0.2055
     72  C         23.0390   57.8230   23.6480 C.2   186  SER186      0.2643
     73  O         23.0840   57.9010   24.8730 O.2   186  SER186     -0.2714
     74  CB        21.8710   56.0940   22.2160 C.3   186  SER186      0.2130
     75  OG        20.8700   55.7120   23.1430 O.3   186  SER186     -0.2179
     76  N         22.8880   58.8970   22.8900 N.am  187  CYS187     -0.1953
     77  CA        22.7930   60.1930   23.5260 C.3   187  CYS187      0.1843
     78  C         22.1590   61.1800   22.5610 C.2   187  CYS187      0.2625
     79  O         21.6810   60.8020   21.4850 O.2   187  CYS187     -0.2714
     80  CB        24.2040   60.6400   23.9800 C.3   187  CYS187      0.0997
     81  SG        24.3410   62.0050   25.1950 S.3   187  CYS187     -0.0797
     82  N         22.1260   62.4420   22.9580 N.am  188  GLN188     -0.1963
     83  CA        21.5220   63.4720   22.1250 C.3   188  GLN188      0.1733
     84  C         21.9890   63.4240   20.6780 C.2   188  GLN188      0.2616
     85  O         23.1840   63.4620   20.4000 O.2   188  GLN188     -0.2715
     86  CB        21.8230   64.8440   22.7000 C.3   188  GLN188      0.0408
     87  CG        21.3440   65.9400   21.8070 C.3   188  GLN188      0.0908
     88  CD        20.5730   66.9720   22.5660 C.2   188  GLN188      0.2608
     89  OE1       21.1240   67.6760   23.4150 O.2   188  GLN188     -0.2717
     90  NE2       19.2760   67.0650   22.2810 N.am  188  GLN188     -0.0878
     91  N         21.0390   63.3720   19.7560 N.am  189  GLY189     -0.1955
     92  CA        21.4020   63.3170   18.3550 C.3   189  GLY189      0.1869
     93  C         21.2850   61.9120   17.7910 C.2   189  GLY189      0.2309
     94  O         21.2390   61.7350   16.5710 O.2   189  GLY189     -0.2863
     95  N         18.7620   59.9230   18.6780 N.3   191  SER191     -0.1217
     96  CA        17.3250   59.6690   18.6470 C.3   191  SER191      0.1889
     97  C         16.8490   59.4130   17.2240 C.2   191  SER191      0.2288
     98  O         17.2730   60.0940   16.2850 O.2   191  SER191     -0.2866
     99  CB        16.5660   60.8660   19.2180 C.3   191  SER191      0.2089
    100  OG        16.9770   61.1210   20.5480 O.3   191  SER191     -0.2183
    101  N         16.1040   54.5600   18.8700 N.3   210  VAL210     -0.1231
    102  CA        16.6970   55.3590   19.9300 C.3   210  VAL210      0.1692
    103  C         15.6330   56.4030   20.2740 C.2   210  VAL210      0.2593
    104  O         15.1360   57.1160   19.3830 O.2   210  VAL210     -0.2718
    105  CB        17.9870   56.0730   19.4750 C.3   210  VAL210      0.0266
    106  CG1       18.5380   56.8940   20.6230 C.3   210  VAL210      0.0020
    107  CG2       19.0220   55.0560   19.0300 C.3   210  VAL210      0.0020
    108  N         15.2820   56.4810   21.5570 N.am  211  SER211     -0.1938
    109  CA        14.2450   57.3970   22.0090 C.3   211  SER211      0.2055
    110  C         14.7030   58.4100   23.0600 C.2   211  SER211      0.2643
    111  O         14.8060   59.5970   22.7580 O.2   211  SER211     -0.2714
    112  CB        13.0480   56.5800   22.5380 C.3   211  SER211      0.2130
    113  OG        11.9700   57.4130   22.9600 O.3   211  SER211     -0.2179
    114  N         14.9600   57.9540   24.2870 N.am  212  TRP212     -0.1959
    115  CA        15.4070   58.8580   25.3510 C.3   212  TRP212      0.1771
    116  C         16.2480   58.1920   26.4300 C.2   212  TRP212      0.2620
    117  O         16.4650   56.9770   26.4190 O.2   212  TRP212     -0.2715
    118  CB        14.2130   59.5340   26.0400 C.3   212  TRP212      0.0590
    119  CG        13.2940   58.5790   26.7610 C.ar  212  TRP212      0.0006
    120  CD1       12.3120   57.8110   26.2030 C.ar  212  TRP212      0.0946
    121  CD2       13.2400   58.3320   28.1790 C.ar  212  TRP212      0.0152
    122  NE1       11.6430   57.1060   27.1860 N.ar  212  TRP212     -0.2442
    123  CE2       12.1930   57.4090   28.4050 C.ar  212  TRP212      0.0810
    124  CE3       13.9720   58.8040   29.2780 C.ar  212  TRP212      0.0012
    125  CZ2       11.8600   56.9480   29.6910 C.ar  212  TRP212      0.0191
    126  CZ3       13.6400   58.3490   30.5530 C.ar  212  TRP212      0.0001
    127  CH2       12.5930   57.4300   30.7480 C.ar  212  TRP212      0.0015
    128  N         16.7190   59.0140   27.3610 N.am  213  GLY213     -0.1940
    129  CA        17.5100   58.5220   28.4720 C.3   213  GLY213      0.2014
    130  C         17.6640   59.5910   29.5450 C.2   213  GLY213      0.2639
    131  O         17.4710   60.7870   29.2790 O.2   213  GLY213     -0.2714
    132  N         17.9730   59.1690   30.7680 N.am  214  ASP214     -0.1957
    133  CA        18.1980   60.1150   31.8600 C.3   214  ASP214      0.1840
    134  C         19.6980   60.3650   31.7650 C.2   214  ASP214      0.2623
    135  O         20.4980   59.5390   32.1980 O.2   214  ASP214     -0.2715
    136  CB        17.8540   59.4850   33.2070 C.3   214  ASP214      0.1450
    137  CG        17.9350   60.4830   34.3570 C.2   214  ASP214      0.3671
    138  OD1       18.3800   61.6320   34.1490 O.co2 214  ASP214     -0.2456
    139  OD2       17.5530   60.1140   35.4820 O.co2 214  ASP214     -0.2456
    140  N         20.0730   61.4990   31.1830 N.am  215  GLY215     -0.1940
    141  CA        21.4830   61.7870   30.9890 C.3   215  GLY215      0.2014
    142  C         21.9710   60.8440   29.8930 C.2   215  GLY215      0.2639
    143  O         21.1740   60.4160   29.0540 O.2   215  GLY215     -0.2714
    144  N         23.2630   60.5170   29.8920 N.am  216  CYS216     -0.1967
    145  CA        23.8390   59.6060   28.9000 C.3   216  CYS216      0.1712
    146  C         24.9340   58.7890   29.5390 C.2   216  CYS216      0.2296
    147  O         25.8550   59.3420   30.1350 O.2   216  CYS216     -0.2864
    148  CB        24.4530   60.3740   27.7400 C.3   216  CYS216      0.0983
    149  SG        23.2740   61.3730   26.8010 S.3   216  CYS216     -0.0798
    150  N         21.1120   54.1520   34.5320 N.3   221  LYS221     -0.1245
    151  CA        20.2520   54.9370   33.6650 C.3   221  LYS221      0.1561
    152  C         20.4980   54.5430   32.2220 C.2   221  LYS221      0.2260
    153  O         20.9620   55.3370   31.4170 O.2   221  LYS221     -0.2867
    154  CB        20.5210   56.4190   33.8850 C.3   221  LYS221      0.0271
    155  CG        20.1630   56.8250   35.2990 C.3   221  LYS221      0.0035
    156  CD        20.5650   58.2450   35.6170 C.3   221  LYS221      0.0206
    157  CE        20.1860   58.5850   37.0630 C.3   221  LYS221      0.1093
    158  NZ        18.7500   58.2490   37.3190 N.3   221  LYS221     -0.1314
    159  N         19.7970   53.5420   28.3120 N.3   223  GLY223     -0.1210
    160  CA        18.9450   54.1940   27.3440 C.3   223  GLY223      0.1956
    161  C         17.6310   53.4600   27.2070 C.2   223  GLY223      0.2612
    162  O         17.5610   52.2440   27.4190 O.2   223  GLY223     -0.2717
    163  N         16.5880   54.2230   26.8690 N.am  224  VAL224     -0.1965
    164  CA        15.2320   53.7120   26.6890 C.3   224  VAL224      0.1727
    165  C         14.9260   53.7660   25.1880 C.2   224  VAL224      0.2616
    166  O         15.0600   54.8070   24.5480 O.2   224  VAL224     -0.2715
    167  CB        14.2250   54.5720   27.4800 C.3   224  VAL224      0.0290
    168  CG1       12.8150   54.0310   27.3110 C.3   224  VAL224      0.0023
    169  CG2       14.6110   54.5740   28.9720 C.3   224  VAL224      0.0023
    170  N         14.5350   52.6270   24.6370 N.am  225  TYR225     -0.1974
    171  CA        14.2580   52.5140   23.2140 C.3   225  TYR225      0.1639
    172  C         12.8160   52.0780   22.9220 C.2   225  TYR225      0.2290
    173  O         12.2040   51.3540   23.7100 O.2   225  TYR225     -0.2864
    174  CB        15.2320   51.4890   22.6030 C.3   225  TYR225      0.0560
    175  CG        16.6980   51.8360   22.8200 C.ar  225  TYR225     -0.0198
    176  CD1       17.3130   51.6560   24.0640 C.ar  225  TYR225     -0.0009
    177  CD2       17.4520   52.3970   21.7860 C.ar  225  TYR225     -0.0009
    178  CE1       18.6460   52.0350   24.2650 C.ar  225  TYR225      0.0417
    179  CE2       18.7730   52.7810   21.9760 C.ar  225  TYR225      0.0417
    180  CZ        19.3650   52.6050   23.2090 C.ar  225  TYR225      0.1957
    181  OH        20.6560   53.0500   23.3900 O.3   225  TYR225     -0.2866
@<TRIPOS>BOND
     1    30    29    2
     2    29    28    1
     3    28    27    1
     4    28    31    1
     5    33    35   ar
     6    33    32   ar
     7    31    32    1
     8    35    37   ar
     9    32    34   ar
    10    37    38    1
    11    37    36   ar
    12    34    36   ar
    13    11    12    1
    14    98    97    2
    15    94    93    2
    16    13    12    1
    17    13    14    2
    18    22    21    2
    19    12    15    1
    20    25    24   ar
    21    19    20    1
    22    97    96    1
    23    93    92    1
    24    21    20    1
    25    24    26   ar
    26    24    23    1
    27     3     4    2
    28     3     2    1
    29    15    16    1
    30    15    17    1
    31    92    91    1
    32    20    23    1
    33     1     2    1
    34    16    18    1
    35    96    95    1
    36    96    99    1
    37   101   102    1
    38   107   105    1
    39     2     5    1
    40    99   100    1
    41   104   103    2
    42   105   102    1
    43   105   106    1
    44    91    84   am
    45   102   103    1
    46   103   108   am
    47    85    84    2
    48     8     6   ar
    49     8    10   ar
    50     6     5    1
    51     6     7   ar
    52    10     9   ar
    53     9     7   ar
    54    84    83    1
    55    79    78    2
    56   108   109    1
    57   177   179   ar
    58   177   175   ar
    59    87    88    1
    60    87    86    1
    61   179   180   ar
    62   109   112    1
    63   109   110    1
    64    83    86    1
    65    83    82    1
    66    74    71    1
    67    74    75    1
    68    90    88   am
    69   112   113    1
    70    78    82   am
    71    78    77    1
    72    88    89    2
    73   174   175    1
    74   174   171    1
    75   111   110    2
    76   175   176   ar
    77    76    77    1
    78    76    72   am
    79   172   171    1
    80   172   173    2
    81    71    72    1
    82    71    70    1
    83   110   114   am
    84   180   181    1
    85   180   178   ar
    86   171   170    1
    87    77    80    1
    88    72    73    2
    89    48    49   ar
    90    48    46   ar
    91    80    81    1
    92    70    64   am
    93    65    64    2
    94    42    41    2
    95   176   178   ar
    96    49    47   ar
    97   114   115    1
    98    46    44   ar
    99    64    63    1
   100   166   165    2
   101   170   165   am
   102    41    40    1
   103    47    45   ar
   104    44    45   ar
   105    44    43    1
   106    40    43    1
   107    40    39    1
   108   165   164    1
   109    81   149    1
   110   115   118    1
   111   115   116    1
   112    63    62    1
   113    63    66    1
   114   118   119    1
   115   120   119   ar
   116   120   122   ar
   117   117   116    2
   118   116   128   am
   119    68    67   ar
   120   164   163    1
   121   164   167    1
   122   119   121   ar
   123   149   148    1
   124   163   161   am
   125    66    67    1
   126    67    69   ar
   127   122   123   ar
   128   161   160    1
   129   161   162    2
   130   168   167    1
   131   160   159    1
   132   128   129    1
   133   167   169    1
   134    50    51    1
   135   148   145    1
   136    51    52    1
   137    51    54    1
   138   121   123   ar
   139   121   124   ar
   140    52    53    2
   141   123   125   ar
   142   129   130    1
   143   145   146    1
   144   145   144    1
   145   143   142    2
   146   124   126   ar
   147   131   130    2
   148    54    55    1
   149    56    58   ar
   150    56    55   ar
   151   146   147    2
   152   130   132   am
   153   125   127   ar
   154    58    60   ar
   155   144   142   am
   156   142   141    1
   157    55    57   ar
   158   126   127   ar
   159    60    61    1
   160    60    59   ar
   161   132   133    1
   162    57    59   ar
   163   141   140    1
   164   140   134   am
   165   153   152    2
   166   134   133    1
   167   134   135    2
   168   133   136    1
   169   152   151    1
   170   136   137    1
   171   151   154    1
   172   151   150    1
   173   154   155    1
   174   138   137   ar
   175   137   139   ar
   176   155   156    1
   177   156   157    1
   178   157   158    1
