@<TRIPOS>MOLECULE
tmp/2gv7A00.pdb
 199 196 0 0 0
SMALL
GASTEIGER

@<TRIPOS>ATOM
      1  N         19.9480   66.1170   12.7970 N.3    26  ILE26      -0.1245
      2  CA        19.0740   66.2340   13.9570 C.3    26  ILE26       0.1561
      3  C         18.6900   64.8670   14.5110 C.2    26  ILE26       0.2260
      4  O         18.6730   64.6580   15.7300 O.2    26  ILE26      -0.2867
      5  CB        17.7840   67.0250   13.6050 C.3    26  ILE26       0.0252
      6  CG1       18.1270   68.5070   13.4020 C.3    26  ILE26       0.0019
      7  CG2       16.7310   66.8350   14.6870 C.3    26  ILE26       0.0019
      8  CD1       18.8730   69.1340   14.5710 C.3    26  ILE26       0.0001
      9  N          9.3090   61.6490   18.3780 N.3    42  HIS42      -0.1226
     10  CA         9.7310   62.8690   19.0680 C.3    42  HIS42       0.1752
     11  C         10.6070   63.7960   18.2190 C.2    42  HIS42       0.2596
     12  O         10.7680   64.9660   18.5560 O.2    42  HIS42      -0.2718
     13  CB        10.4460   62.5490   20.3970 C.3    42  HIS42       0.0759
     14  CG        11.8800   62.1430   20.2500 C.ar   42  HIS42       0.0818
     15  ND1       12.2790   60.8250   20.1460 N.ar   42  HIS42      -0.2268
     16  CD2       13.0170   62.8820   20.2270 C.ar   42  HIS42       0.1154
     17  CE1       13.5990   60.7710   20.0690 C.ar   42  HIS42       0.1986
     18  NE2       14.0700   62.0040   20.1170 N.ar   42  HIS42      -0.2212
     19  N         11.1720   63.2850   17.1290 N.am   43  CYS43      -0.1970
     20  CA        12.0090   64.1140   16.2440 C.3    43  CYS43       0.1712
     21  C         11.1670   65.0640   15.4040 C.2    43  CYS43       0.2296
     22  O         11.6630   66.1010   14.9700 O.2    43  CYS43      -0.2864
     23  CB        12.8160   63.2560   15.2520 C.3    43  CYS43       0.0983
     24  SG        14.1160   62.2090   15.9620 S.3    43  CYS43      -0.0798
     25  N          8.2190   66.7770   16.2170 N.3    45  ILE45      -0.1231
     26  CA         7.2630   67.5860   16.9600 C.3    45  ILE45       0.1692
     27  C          7.5880   69.0530   16.7160 C.2    45  ILE45       0.2592
     28  O          8.7290   69.4700   16.9180 O.2    45  ILE45      -0.2718
     29  CB         7.3720   67.3020   18.4710 C.3    45  ILE45       0.0266
     30  CG1        7.0470   65.8330   18.7510 C.3    45  ILE45       0.0019
     31  CG2        6.4490   68.2200   19.2490 C.3    45  ILE45       0.0020
     32  CD1        7.3880   65.4060   20.1750 C.3    45  ILE45       0.0001
     33  N          6.6070   69.8360   16.2690 N.am   46  ASP46      -0.1960
     34  CA         6.8560   71.2620   16.0400 C.3    46  ASP46       0.1840
     35  C          7.1610   71.9580   17.3680 C.2    46  ASP46       0.2622
     36  O          6.8170   71.4610   18.4480 O.2    46  ASP46      -0.2715
     37  CB         5.6250   71.9890   15.4630 C.3    46  ASP46       0.1450
     38  CG         5.1340   71.4060   14.1700 C.2    46  ASP46       0.3671
     39  OD1        5.9650   71.0560   13.3100 O.co2  46  ASP46      -0.2456
     40  OD2        3.9010   71.3210   14.0060 O.co2  46  ASP46      -0.2456
     41  N          7.8240   73.1030   17.2710 N.am   47  ASP47      -0.1971
     42  CA         8.0850   73.9480   18.4260 C.3    47  ASP47       0.1709
     43  C          7.8120   75.3460   17.8530 C.2    47  ASP47       0.2293
     44  O          7.5770   75.4680   16.6520 O.2    47  ASP47      -0.2864
     45  CB         9.5100   73.7670   18.9840 C.3    47  ASP47       0.1436
     46  CG        10.5910   74.1900   18.0230 C.2    47  ASP47       0.3671
     47  OD1       10.2770   74.7820   16.9690 O.co2  47  ASP47      -0.2456
     48  OD2       11.7730   73.9320   18.3420 O.co2  47  ASP47      -0.2456
     49  N          9.1110   70.8820   12.6800 N.3    52  TYR52      -0.1241
     50  CA         9.6890   69.5670   12.4770 C.3    52  TYR52       0.1605
     51  C          8.7010   68.5560   11.8830 C.2    52  TYR52       0.2264
     52  O          9.1090   67.5640   11.2760 O.2    52  TYR52      -0.2867
     53  CB        10.2460   69.0660   13.8010 C.3    52  TYR52       0.0534
     54  CG        11.4240   69.8870   14.2580 C.ar   52  TYR52      -0.0201
     55  CD1       12.6690   69.7520   13.6430 C.ar   52  TYR52      -0.0009
     56  CD2       11.2890   70.8390   15.2700 C.ar   52  TYR52      -0.0009
     57  CE1       13.7440   70.5380   14.0250 C.ar   52  TYR52       0.0417
     58  CE2       12.3580   71.6350   15.6540 C.ar   52  TYR52       0.0417
     59  CZ        13.5860   71.4770   15.0260 C.ar   52  TYR52       0.1957
     60  OH        14.6590   72.2530   15.4010 O.3    52  TYR52      -0.2866
     61  N          6.1950   59.7480   26.3040 N.3    94  PHE94      -0.1241
     62  CA         7.0160   59.2120   25.2260 C.3    94  PHE94       0.1605
     63  C          6.5840   57.8290   24.7800 C.2    94  PHE94       0.2264
     64  O          7.3050   57.1350   24.0600 O.2    94  PHE94      -0.2867
     65  CB         8.4850   59.2050   25.6230 C.3    94  PHE94       0.0534
     66  CG         9.2360   60.3570   25.0670 C.ar   94  PHE94      -0.0203
     67  CD1        8.7740   61.6580   25.2690 C.ar   94  PHE94      -0.0042
     68  CD2       10.3460   60.1550   24.2640 C.ar   94  PHE94      -0.0042
     69  CE1        9.4010   62.7310   24.6690 C.ar   94  PHE94      -0.0003
     70  CE2       10.9760   61.2260   23.6630 C.ar   94  PHE94      -0.0003
     71  CZ        10.5000   62.5150   23.8630 C.ar   94  PHE94      -0.0000
     72  N         27.9270   62.9880   27.4280 N.3   141  TYR141     -0.1241
     73  CA        26.7520   63.7230   27.8950 C.3   141  TYR141      0.1605
     74  C         27.2980   65.1280   28.1180 C.2   141  TYR141      0.2264
     75  O         28.2470   65.3140   28.8810 O.2   141  TYR141     -0.2867
     76  CB        26.1980   63.1700   29.2200 C.3   141  TYR141      0.0534
     77  CG        25.0580   64.0100   29.7690 C.ar  141  TYR141     -0.0201
     78  CD1       23.8260   64.0570   29.1190 C.ar  141  TYR141     -0.0009
     79  CD2       25.2410   64.8340   30.8800 C.ar  141  TYR141     -0.0009
     80  CE1       22.8050   64.9130   29.5500 C.ar  141  TYR141      0.0417
     81  CE2       24.2260   65.6950   31.3220 C.ar  141  TYR141      0.0417
     82  CZ        23.0110   65.7310   30.6500 C.ar  141  TYR141      0.1957
     83  OH        22.0150   66.5990   31.0590 O.3   141  TYR141     -0.2866
     84  N         26.1900   54.0430   25.7070 N.3   185  ASP185     -0.1225
     85  CA        24.7980   54.4400   25.5880 C.3   185  ASP185      0.1805
     86  C         24.6480   55.3420   24.3660 C.2   185  ASP185      0.2598
     87  O         25.6270   55.9150   23.8730 O.2   185  ASP185     -0.2718
     88  CB        24.3850   55.2030   26.8570 C.3   185  ASP185      0.1424
     89  CG        22.8700   55.4070   26.9770 C.2   185  ASP185      0.3668
     90  OD1       22.0990   54.7770   26.2210 O.co2 185  ASP185     -0.2456
     91  OD2       22.4510   56.1930   27.8560 O.co2 185  ASP185     -0.2456
     92  N         23.4320   55.4350   23.8420 N.am  186  SER186     -0.1938
     93  CA        23.1930   56.3340   22.7230 C.3   186  SER186      0.2055
     94  C         23.0540   57.6880   23.4150 C.2   186  SER186      0.2643
     95  O         23.1070   57.7700   24.6430 O.2   186  SER186     -0.2714
     96  CB        21.9080   55.9620   21.9640 C.3   186  SER186      0.2130
     97  OG        20.8600   55.6570   22.8600 O.3   186  SER186     -0.2179
     98  N         22.8810   58.7540   22.6540 N.am  187  CYS187     -0.1953
     99  CA        22.7760   60.0570   23.2870 C.3   187  CYS187      0.1843
    100  C         22.1210   61.0190   22.3100 C.2   187  CYS187      0.2625
    101  O         21.5940   60.5980   21.2740 O.2   187  CYS187     -0.2714
    102  CB        24.1870   60.5250   23.6930 C.3   187  CYS187      0.0997
    103  SG        24.3040   61.8700   24.9170 S.3   187  CYS187     -0.0797
    104  N         22.1480   62.3060   22.6400 N.am  188  GLN188     -0.1977
    105  CA        21.5450   63.3110   21.7840 C.3   188  GLN188      0.1601
    106  C         22.0400   63.2440   20.3450 C.2   188  GLN188      0.2287
    107  O         23.2500   63.2370   20.0900 O.2   188  GLN188     -0.2864
    108  CB        21.8250   64.6890   22.3360 C.3   188  GLN188      0.0394
    109  CG        21.1720   65.7410   21.5180 C.3   188  GLN188      0.0908
    110  CD        20.2440   66.5720   22.3310 C.2   188  GLN188      0.2608
    111  OE1       20.6850   67.3660   23.1620 O.2   188  GLN188     -0.2717
    112  NE2       18.9420   66.3960   22.1170 N.am  188  GLN188     -0.0878
    113  N         18.8370   59.8880   18.5150 N.3   191  SER191     -0.1217
    114  CA        17.3800   59.7480   18.4790 C.3   191  SER191      0.1889
    115  C         16.8570   59.3170   17.1080 C.2   191  SER191      0.2288
    116  O         17.2420   59.8890   16.0780 O.2   191  SER191     -0.2866
    117  CB        16.7080   61.0800   18.8440 C.3   191  SER191      0.2089
    118  OG        16.9270   61.4330   20.1940 O.3   191  SER191     -0.2183
    119  N         16.0620   54.3570   18.9400 N.3   210  VAL210     -0.1231
    120  CA        16.6380   55.2000   19.9940 C.3   210  VAL210      0.1692
    121  C         15.5360   56.2060   20.3590 C.2   210  VAL210      0.2593
    122  O         15.0620   56.9690   19.5000 O.2   210  VAL210     -0.2718
    123  CB        17.9000   55.9390   19.4750 C.3   210  VAL210      0.0266
    124  CG1       18.4610   56.8470   20.5500 C.3   210  VAL210      0.0020
    125  CG2       18.9600   54.9180   19.0520 C.3   210  VAL210      0.0020
    126  N         15.1040   56.1900   21.6170 N.am  211  SER211     -0.1938
    127  CA        14.0210   57.0690   22.0350 C.3   211  SER211      0.2055
    128  C         14.4130   58.1230   23.0630 C.2   211  SER211      0.2643
    129  O         14.3510   59.3200   22.7860 O.2   211  SER211     -0.2714
    130  CB        12.8380   56.2380   22.5610 C.3   211  SER211      0.2130
    131  OG        11.7950   57.0890   23.0270 O.3   211  SER211     -0.2179
    132  N         14.8000   57.7000   24.2580 N.am  212  TRP212     -0.1959
    133  CA        15.1980   58.6780   25.2650 C.3   212  TRP212      0.1771
    134  C         16.0810   58.0480   26.3150 C.2   212  TRP212      0.2620
    135  O         16.3220   56.8330   26.3010 O.2   212  TRP212     -0.2715
    136  CB        13.9720   59.2940   25.9440 C.3   212  TRP212      0.0590
    137  CG        13.1180   58.3040   26.6900 C.ar  212  TRP212      0.0006
    138  CD1       12.1610   57.4800   26.1630 C.ar  212  TRP212      0.0946
    139  CD2       13.1130   58.0720   28.1090 C.ar  212  TRP212      0.0152
    140  NE1       11.5520   56.7550   27.1710 N.ar  212  TRP212     -0.2442
    141  CE2       12.1170   57.1000   28.3720 C.ar  212  TRP212      0.0810
    142  CE3       13.8490   58.5970   29.1850 C.ar  212  TRP212      0.0012
    143  CZ2       11.8370   56.6450   29.6630 C.ar  212  TRP212      0.0191
    144  CZ3       13.5650   58.1410   30.4750 C.ar  212  TRP212      0.0001
    145  CH2       12.5670   57.1740   30.6990 C.ar  212  TRP212      0.0015
    146  N         16.5480   58.8920   27.2270 N.am  213  GLY213     -0.1940
    147  CA        17.3920   58.4490   28.3140 C.3   213  GLY213      0.2014
    148  C         17.5830   59.6060   29.2750 C.2   213  GLY213      0.2639
    149  O         17.5360   60.7670   28.8640 O.2   213  GLY213     -0.2714
    150  N         17.7680   59.3070   30.5560 N.am  214  ASP214     -0.1957
    151  CA        17.9980   60.3640   31.5400 C.3   214  ASP214      0.1840
    152  C         19.4930   60.6350   31.4560 C.2   214  ASP214      0.2623
    153  O         20.2950   59.8960   32.0210 O.2   214  ASP214     -0.2715
    154  CB        17.6210   59.8890   32.9440 C.3   214  ASP214      0.1450
    155  CG        17.9540   60.9130   34.0150 C.2   214  ASP214      0.3671
    156  OD1       18.2950   62.0620   33.6750 O.co2 214  ASP214     -0.2456
    157  OD2       17.8660   60.5710   35.2060 O.co2 214  ASP214     -0.2456
    158  N         19.8600   61.6940   30.7380 N.am  215  GLY215     -0.1940
    159  CA        21.2650   61.9990   30.5540 C.3   215  GLY215      0.2014
    160  C         21.7650   61.0080   29.5170 C.2   215  GLY215      0.2639
    161  O         21.0080   60.6170   28.6260 O.2   215  GLY215     -0.2714
    162  N         23.0240   60.5950   29.6290 N.am  216  CYS216     -0.1967
    163  CA        23.6020   59.6230   28.7070 C.3   216  CYS216      0.1712
    164  C         24.7010   58.8310   29.4010 C.2   216  CYS216      0.2296
    165  O         25.5810   59.4120   30.0300 O.2   216  CYS216     -0.2864
    166  CB        24.2210   60.3180   27.5020 C.3   216  CYS216      0.0983
    167  SG        23.0950   61.2660   26.4400 S.3   216  CYS216     -0.0798
    168  N         20.9310   54.3910   34.4710 N.3   221  LYS221     -0.1245
    169  CA        20.0540   55.1450   33.5950 C.3   221  LYS221      0.1561
    170  C         20.3620   54.7470   32.1560 C.2   221  LYS221      0.2260
    171  O         20.8730   55.5380   31.3620 O.2   221  LYS221     -0.2867
    172  CB        20.2570   56.6420   33.8280 C.3   221  LYS221      0.0271
    173  CG        19.9580   57.0220   35.2700 C.3   221  LYS221      0.0035
    174  CD        20.4350   58.4200   35.6280 C.3   221  LYS221      0.0206
    175  CE        20.1500   58.7110   37.0960 C.3   221  LYS221      0.1093
    176  NZ        18.7710   58.2240   37.4490 N.3   221  LYS221     -0.1314
    177  N         19.7830   53.6070   28.1870 N.3   223  GLY223     -0.1210
    178  CA        18.9570   54.1980   27.1570 C.3   223  GLY223      0.1956
    179  C         17.6650   53.4160   27.0230 C.2   223  GLY223      0.2612
    180  O         17.6540   52.1870   27.1660 O.2   223  GLY223     -0.2717
    181  N         16.5710   54.1360   26.7820 N.am  224  VAL224     -0.1965
    182  CA        15.2550   53.5250   26.6050 C.3   224  VAL224      0.1727
    183  C         14.9490   53.5550   25.1130 C.2   224  VAL224      0.2616
    184  O         15.1250   54.5830   24.4450 O.2   224  VAL224     -0.2715
    185  CB        14.1730   54.2900   27.3910 C.3   224  VAL224      0.0290
    186  CG1       12.8190   53.6140   27.2220 C.3   224  VAL224      0.0023
    187  CG2       14.5540   54.3360   28.8690 C.3   224  VAL224      0.0023
    188  N         14.4890   52.4200   24.6000 N.am  225  TYR225     -0.1974
    189  CA        14.2040   52.2580   23.1810 C.3   225  TYR225      0.1639
    190  C         12.7870   51.7720   22.9020 C.2   225  TYR225      0.2290
    191  O         12.2000   51.0470   23.6990 O.2   225  TYR225     -0.2864
    192  CB        15.1960   51.2440   22.5770 C.3   225  TYR225      0.0560
    193  CG        16.6560   51.6350   22.7170 C.ar  225  TYR225     -0.0198
    194  CD1       17.3290   51.5030   23.9290 C.ar  225  TYR225     -0.0009
    195  CD2       17.3520   52.1740   21.6350 C.ar  225  TYR225     -0.0009
    196  CE1       18.6620   51.9050   24.0550 C.ar  225  TYR225      0.0417
    197  CE2       18.6760   52.5800   21.7490 C.ar  225  TYR225      0.0417
    198  CZ        19.3260   52.4510   22.9560 C.ar  225  TYR225      0.1957
    199  OH        20.6200   52.9050   23.0770 O.3   225  TYR225     -0.2866
@<TRIPOS>BOND
     1    52    51    2
     2    51    50    1
     3    50    49    1
     4    50    53    1
     5     1     2    1
     6    39    38   ar
     7     6     5    1
     8     6     8    1
     9     5     2    1
    10     5     7    1
    11    55    57   ar
    12    55    54   ar
    13    53    54    1
    14     2     3    1
    15    40    38   ar
    16    57    59   ar
    17    38    37    1
    18    54    56   ar
    19     3     4    2
    20    22    21    2
    21    59    60    1
    22    59    58   ar
    23    23    24    1
    24    23    20    1
    25    56    58   ar
    26    21    20    1
    27    37    34    1
    28    34    33    1
    29    34    35    1
    30   116   115    2
    31    25    26    1
    32    20    19    1
    33    33    27   am
    34    44    43    2
    35    27    28    2
    36    27    26    1
    37    26    29    1
    38    47    46   ar
    39   115   114    1
    40    19    11   am
    41    41    35   am
    42    41    42    1
    43    35    36    2
    44    43    42    1
    45    46    48   ar
    46    46    45    1
    47    11    12    2
    48    11    10    1
    49     9    10    1
    50    42    45    1
    51    29    30    1
    52    29    31    1
    53   114   113    1
    54   114   117    1
    55    30    32    1
    56   117   118    1
    57   119   120    1
    58   125   123    1
    59    10    13    1
    60   123   120    1
    61   123   124    1
    62   122   121    2
    63   120   121    1
    64    17    18   ar
    65    17    15   ar
    66   107   106    2
    67    18    16   ar
    68    15    14   ar
    69    16    14   ar
    70    14    13    1
    71   106   105    1
    72   121   126   am
    73   101   100    2
    74   109   110    1
    75   109   108    1
    76   126   127    1
    77   195   197   ar
    78   195   193   ar
    79   197   198   ar
    80   105   108    1
    81   105   104    1
    82    96    93    1
    83    96    97    1
    84   127   130    1
    85   127   128    1
    86   112   110   am
    87   100   104   am
    88   100    99    1
    89   110   111    2
    90   130   131    1
    91   192   193    1
    92   192   189    1
    93    98    99    1
    94    98    94   am
    95   193   194   ar
    96    93    94    1
    97    93    92    1
    98   129   128    2
    99   190   189    1
   100   190   191    2
   101   198   199    1
   102   198   196   ar
   103   128   132   am
   104   189   188    1
   105    99   102    1
   106    94    95    2
   107    70    71   ar
   108    70    68   ar
   109   102   103    1
   110    92    86   am
   111    71    69   ar
   112    87    86    2
   113   194   196   ar
   114    64    63    2
   115   132   133    1
   116    68    66   ar
   117    86    85    1
   118   184   183    2
   119   188   183   am
   120    69    67   ar
   121    63    62    1
   122   103   167    1
   123    66    67   ar
   124    66    65    1
   125   183   182    1
   126    62    65    1
   127    62    61    1
   128   133   136    1
   129   133   134    1
   130    85    84    1
   131    85    88    1
   132   136   137    1
   133   138   137   ar
   134   138   140   ar
   135    90    89   ar
   136   135   134    2
   137   134   146   am
   138   167   166    1
   139   182   181    1
   140   182   185    1
   141   137   139   ar
   142   181   179   am
   143    88    89    1
   144    89    91   ar
   145   179   178    1
   146   179   180    2
   147   178   177    1
   148   140   141   ar
   149   186   185    1
   150   146   147    1
   151   185   187    1
   152    72    73    1
   153   166   163    1
   154    73    74    1
   155    73    76    1
   156   139   141   ar
   157   139   142   ar
   158    74    75    2
   159   147   148    1
   160   141   143   ar
   161   161   160    2
   162   163   164    1
   163   163   162    1
   164   149   148    2
   165    78    80   ar
   166    78    77   ar
   167   142   144   ar
   168    76    77    1
   169   148   150   am
   170   164   165    2
   171   160   162   am
   172   160   159    1
   173    80    82   ar
   174   143   145   ar
   175    77    79   ar
   176   144   145   ar
   177   159   158    1
   178   150   151    1
   179    82    83    1
   180    82    81   ar
   181   158   152   am
   182    79    81   ar
   183   171   170    2
   184   152   151    1
   185   152   153    2
   186   151   154    1
   187   170   169    1
   188   154   155    1
   189   169   172    1
   190   169   168    1
   191   156   155   ar
   192   172   173    1
   193   155   157   ar
   194   173   174    1
   195   174   175    1
   196   175   176    1
