@<TRIPOS>MOLECULE
tmp/2gvcB01.pdb
 89 84 0 0 0
SMALL
GASTEIGER

@<TRIPOS>ATOM
      1  N          7.4020    4.2810    4.4770 N.3    83  TYR83      -0.1241
      2  CA         7.6480    2.9520    5.0290 C.3    83  TYR83       0.1605
      3  C          6.3990    2.3770    5.6480 C.2    83  TYR83       0.2264
      4  O          5.4360    3.0970    5.8970 O.2    83  TYR83      -0.2867
      5  CB         8.8290    2.9660    6.0160 C.3    83  TYR83       0.0534
      6  CG         8.8260    4.0820    7.0320 C.ar   83  TYR83      -0.0201
      7  CD1        8.1520    3.9420    8.2470 C.ar   83  TYR83      -0.0009
      8  CD2        9.5150    5.2710    6.7880 C.ar   83  TYR83      -0.0009
      9  CE1        8.1680    4.9560    9.1970 C.ar   83  TYR83       0.0417
     10  CE2        9.5380    6.3020    7.7350 C.ar   83  TYR83       0.0417
     11  CZ         8.8640    6.1330    8.9350 C.ar   83  TYR83       0.1957
     12  OH         8.8980    7.1320    9.8760 O.3    83  TYR83      -0.2866
     13  N          4.6900    3.8360    9.1000 N.3    86  LEU86      -0.1245
     14  CA         4.7070    5.2920    9.1900 C.3    86  LEU86       0.1561
     15  C          3.4270    5.9550    9.7000 C.2    86  LEU86       0.2260
     16  O          2.3150    5.6080    9.3000 O.2    86  LEU86      -0.2867
     17  CB         5.0820    5.8830    7.8270 C.3    86  LEU86       0.0270
     18  CG         5.2800    7.3910    7.7200 C.3    86  LEU86       0.0019
     19  CD1        6.1450    7.6750    6.5110 C.3    86  LEU86       0.0001
     20  CD2        3.9450    8.1170    7.5940 C.3    86  LEU86       0.0001
     21  N          4.0570   13.1800   11.2620 N.3    89  ASN89      -0.1240
     22  CA         4.7960   13.9540   12.2470 C.3    89  ASN89       0.1653
     23  C          4.1150   15.3210   12.2880 C.2    89  ASN89       0.2266
     24  O          4.6260   16.2780   12.8630 O.2    89  ASN89      -0.2867
     25  CB         6.2990   14.0490   11.8900 C.3    89  ASN89       0.1155
     26  CG         6.5620   14.6350   10.5110 C.2    89  ASN89       0.2627
     27  OD1        7.6940   14.5900   10.0230 O.2    89  ASN89      -0.2716
     28  ND2        5.5360   15.1930    9.8860 N.am   89  ASN89      -0.0877
     29  N         11.3710   14.6970   -2.8640 N.3   173  TYR173     -0.1241
     30  CA        11.7990   13.5880   -2.0150 C.3   173  TYR173      0.1605
     31  C         11.9690   12.3040   -2.8350 C.2   173  TYR173      0.2264
     32  O         11.5790   11.2090   -2.3910 O.2   173  TYR173     -0.2867
     33  CB        10.7860   13.3510   -0.8870 C.3   173  TYR173      0.0534
     34  CG        10.7590   14.4570    0.1440 C.ar  173  TYR173     -0.0201
     35  CD1       11.9470   14.9720    0.6690 C.ar  173  TYR173     -0.0009
     36  CD2        9.5530   15.0070    0.5800 C.ar  173  TYR173     -0.0009
     37  CE1       11.9350   16.0090    1.5960 C.ar  173  TYR173      0.0417
     38  CE2        9.5300   16.0490    1.5060 C.ar  173  TYR173      0.0417
     39  CZ        10.7250   16.5470    2.0070 C.ar  173  TYR173      0.1957
     40  OH        10.7310   17.6020    2.8930 O.3   173  TYR173     -0.2866
     41  N         17.3420    6.1380    3.4510 N.3   198  SER198     -0.1217
     42  CA        16.0000    6.1420    4.0440 C.3   198  SER198      0.1889
     43  C         14.8830    5.8460    3.0240 C.2   198  SER198      0.2288
     44  O         13.8260    5.3440    3.3900 O.2   198  SER198     -0.2866
     45  CB        15.7240    7.5010    4.6820 C.3   198  SER198      0.2089
     46  OG        15.6130    8.4990    3.6840 O.3   198  SER198     -0.2183
     47  N         15.0340   14.6700   11.4020 N.3   219  SER219     -0.1202
     48  CA        13.9010   13.9270   11.9480 C.3   219  SER219      0.2020
     49  C         13.8520   12.5010   11.4170 C.2   219  SER219      0.2619
     50  O         13.5960   11.5650   12.1710 O.2   219  SER219     -0.2717
     51  CB        12.5810   14.6480   11.6300 C.3   219  SER219      0.2103
     52  OG        12.3290   14.6860   10.2320 O.3   219  SER219     -0.2182
     53  N         14.1000   12.3350   10.1230 N.am  220  SER220     -0.1951
     54  CA        14.0730   11.0080    9.5160 C.3   220  SER220      0.1924
     55  C         15.0840   10.0610   10.1650 C.2   220  SER220      0.2314
     56  O         14.7770    8.8880   10.4200 O.2   220  SER220     -0.2863
     57  CB        14.3340   11.1120    8.0100 C.3   220  SER220      0.2116
     58  OG        15.4960   11.8780    7.7450 O.3   220  SER220     -0.2180
     59  N         13.8570    9.1090   13.6610 N.3   223  ASP223     -0.1239
     60  CA        12.6890    8.2480   13.5760 C.3   223  ASP223      0.1674
     61  C         13.1740    6.8380   13.2840 C.2   223  ASP223      0.2266
     62  O         12.6850    5.8650   13.8660 O.2   223  ASP223     -0.2867
     63  CB        11.7400    8.7050   12.4530 C.3   223  ASP223      0.1410
     64  CG        11.0490   10.0260   12.7600 C.2   223  ASP223      0.3668
     65  OD1       10.8370   10.3300   13.9550 O.co2 223  ASP223     -0.2456
     66  OD2       10.6960   10.7580   11.8050 O.co2 223  ASP223     -0.2456
     67  N         18.5070   12.8270    3.6280 N.3   286  GLY286     -0.1210
     68  CA        17.5580   13.5130    2.7640 C.3   286  GLY286      0.1956
     69  C         17.6980   13.3200    1.2620 C.2   286  GLY286      0.2611
     70  O         18.2990   12.3480    0.7950 O.2   286  GLY286     -0.2717
     71  N         17.1350   14.2610    0.5060 N.am  287  TYR287     -0.1976
     72  CA        17.1500   14.2140   -0.9580 C.3   287  TYR287      0.1639
     73  C         17.6240   15.5380   -1.5870 C.2   287  TYR287      0.2290
     74  O         18.0000   16.4840   -0.8930 O.2   287  TYR287     -0.2864
     75  CB        15.7400   13.8970   -1.4930 C.3   287  TYR287      0.0560
     76  CG        15.0680   12.7140   -0.8360 C.ar  287  TYR287     -0.0198
     77  CD1       14.7630   12.7330    0.5300 C.ar  287  TYR287     -0.0009
     78  CD2       14.7880   11.5550   -1.5600 C.ar  287  TYR287     -0.0009
     79  CE1       14.2090   11.6260    1.1610 C.ar  287  TYR287      0.0417
     80  CE2       14.2280   10.4400   -0.9430 C.ar  287  TYR287      0.0417
     81  CZ        13.9480   10.4780    0.4160 C.ar  287  TYR287      0.1957
     82  OH        13.4510    9.3660    1.0460 O.3   287  TYR287     -0.2866
     83  N          3.0180   20.3950    4.6890 N.3   339  PRO339     -0.2116
     84  CA         2.7850   20.1870    3.2560 C.3   339  PRO339      0.1372
     85  C          1.4570   20.5940    2.6240 C.2   339  PRO339      0.2244
     86  O          1.4190   21.5030    1.8060 O.2   339  PRO339     -0.2868
     87  CB         3.0580   18.6920    3.0910 C.3   339  PRO339      0.0268
     88  CG         4.1380   18.4620    4.0640 C.3   339  PRO339      0.0207
     89  CD         3.6200   19.1850    5.2810 C.3   339  PRO339      0.0892
@<TRIPOS>BOND
     1    29    30    1
     2    31    32    2
     3    31    30    1
     4    30    33    1
     5    73    72    1
     6    73    74    2
     7    78    80   ar
     8    78    76   ar
     9    75    72    1
    10    75    76    1
    11    72    71    1
    12    80    81   ar
    13    33    34    1
    14    76    77   ar
    15    34    36   ar
    16    34    35   ar
    17    81    82    1
    18    81    79   ar
    19    71    69   am
    20    77    79   ar
    21    36    38   ar
    22    35    37   ar
    23    70    69    2
    24    69    68    1
    25    38    39   ar
    26    37    39   ar
    27    86    85    2
    28    39    40    1
    29    85    84    1
    30    68    67    1
    31    43    44    2
    32    43    42    1
    33    87    84    1
    34    87    88    1
    35    84    83    1
    36    41    42    1
    37    46    45    1
    38    42    45    1
    39    88    89    1
    40     1     2    1
    41    83    89    1
    42     2     3    1
    43     2     5    1
    44     3     4    2
    45     5     6    1
    46    19    18    1
    47     8     6   ar
    48     8    10   ar
    49     6     7   ar
    50    20    18    1
    51    18    17    1
    52    10    11   ar
    53    58    57    1
    54    17    14    1
    55    57    54    1
    56     7     9   ar
    57    11     9   ar
    58    11    12    1
    59    13    14    1
    60    14    15    1
    61    16    15    2
    62    54    53    1
    63    54    55    1
    64    28    26   am
    65    27    26    2
    66    53    49   am
    67    55    56    2
    68    52    51    1
    69    26    25    1
    70    21    22    1
    71    47    48    1
    72    49    48    1
    73    49    50    2
    74    51    48    1
    75    66    64   ar
    76    25    22    1
    77    22    23    1
    78    23    24    2
    79    63    64    1
    80    63    60    1
    81    64    65   ar
    82    61    60    1
    83    61    62    2
    84    60    59    1
