@<TRIPOS>MOLECULE
tmp/2gvdB00.pdb
 80 77 0 0 0
SMALL
GASTEIGER

@<TRIPOS>ATOM
      1  N         47.5150   -6.8730   40.3470 N.3    15  PRO15      -0.2116
      2  CA        47.1660   -5.6920   41.1440 C.3    15  PRO15       0.1372
      3  C         45.8990   -4.9990   40.7130 C.2    15  PRO15       0.2244
      4  O         45.3710   -4.1700   41.4380 O.2    15  PRO15      -0.2868
      5  CB        48.3880   -4.8030   40.9910 C.3    15  PRO15       0.0268
      6  CG        48.8700   -5.1640   39.6100 C.3    15  PRO15       0.0207
      7  CD        48.7700   -6.6480   39.6130 C.3    15  PRO15       0.0892
      8  N         43.0470   -6.5940   40.1990 N.3    17  PHE17      -0.1227
      9  CA        41.9190   -7.3500   40.7340 C.3    17  PHE17       0.1736
     10  C         41.2910   -6.7760   41.9950 C.2    17  PHE17       0.2595
     11  O         40.0760   -6.6740   42.0790 O.2    17  PHE17      -0.2718
     12  CB        42.3340   -8.7900   41.0090 C.3    17  PHE17       0.0547
     13  CG        41.1810   -9.7040   41.2150 C.ar   17  PHE17      -0.0202
     14  CD1       40.4070  -10.1190   40.1360 C.ar   17  PHE17      -0.0042
     15  CD2       40.8410  -10.1280   42.4870 C.ar   17  PHE17      -0.0042
     16  CE1       39.3030  -10.9540   40.3250 C.ar   17  PHE17      -0.0003
     17  CE2       39.7440  -10.9570   42.6810 C.ar   17  PHE17      -0.0003
     18  CZ        38.9730  -11.3710   41.5990 C.ar   17  PHE17      -0.0000
     19  N         42.1150   -6.4200   42.9750 N.am   18  LYS18      -0.1980
     20  CA        41.6360   -5.8660   44.2390 C.3    18  LYS18       0.1596
     21  C         40.6240   -4.7620   44.0240 C.2    18  LYS18       0.2287
     22  O         39.6700   -4.6400   44.7870 O.2    18  LYS18      -0.2864
     23  CB        42.8040   -5.3380   45.0720 C.3    18  LYS18       0.0298
     24  CG        42.4080   -4.9050   46.4620 C.3    18  LYS18       0.0038
     25  CD        43.6220   -4.4900   47.2820 C.3    18  LYS18       0.0206
     26  CE        43.2280   -4.0780   48.7080 C.3    18  LYS18       0.1093
     27  NZ        44.4120   -3.7000   49.5330 N.3    18  LYS18      -0.1314
     28  N         37.4110   -6.3720   42.6710 N.3    21  TYR21      -0.1241
     29  CA        36.6240   -6.9790   43.7360 C.3    21  TYR21       0.1605
     30  C         35.7210   -5.9470   44.3960 C.2    21  TYR21       0.2264
     31  O         36.1670   -4.8520   44.7460 O.2    21  TYR21      -0.2867
     32  CB        37.5440   -7.5740   44.7900 C.3    21  TYR21       0.0534
     33  CG        36.8240   -8.3060   45.8920 C.ar   21  TYR21      -0.0201
     34  CD1       36.1140   -9.4820   45.6340 C.ar   21  TYR21      -0.0009
     35  CD2       36.8570   -7.8280   47.1980 C.ar   21  TYR21      -0.0009
     36  CE1       35.4570  -10.1610   46.6530 C.ar   21  TYR21       0.0417
     37  CE2       36.2030   -8.5030   48.2280 C.ar   21  TYR21       0.0417
     38  CZ        35.5040   -9.6650   47.9490 C.ar   21  TYR21       0.1957
     39  OH        34.8500  -10.3210   48.9690 O.3    21  TYR21      -0.2866
     40  N         34.8590  -13.5070   42.8370 N.3    34  LEU34      -0.1245
     41  CA        35.6870  -14.6690   43.1030 C.3    34  LEU34       0.1561
     42  C         35.5160  -15.7110   42.0090 C.2    34  LEU34       0.2260
     43  O         36.4490  -16.4400   41.6910 O.2    34  LEU34      -0.2867
     44  CB        35.3250  -15.2880   44.4550 C.3    34  LEU34       0.0270
     45  CG        35.5590  -14.4060   45.6780 C.3    34  LEU34       0.0019
     46  CD1       35.1370  -15.1370   46.9250 C.3    34  LEU34       0.0001
     47  CD2       37.0170  -14.0590   45.7690 C.3    34  LEU34       0.0001
     48  N         37.8510  -15.0010   39.4160 N.3    37  LEU37      -0.1245
     49  CA        39.2060  -15.3130   39.8580 C.3    37  LEU37       0.1561
     50  C         39.4150  -16.8000   39.7380 C.2    37  LEU37       0.2260
     51  O         40.5050  -17.2410   39.4560 O.2    37  LEU37      -0.2867
     52  CB        39.4270  -14.8810   41.3130 C.3    37  LEU37       0.0270
     53  CG        40.8110  -15.1350   41.9130 C.3    37  LEU37       0.0019
     54  CD1       41.8560  -14.4590   41.0540 C.3    37  LEU37       0.0001
     55  CD2       40.8780  -14.6270   43.3260 C.3    37  LEU37       0.0001
     56  N         48.6860  -16.8390   46.5400 N.3    62  ILE62      -0.1231
     57  CA        48.5140  -15.7900   47.5420 C.3    62  ILE62       0.1692
     58  C         47.4690  -14.7830   47.0650 C.2    62  ILE62       0.2593
     59  O         47.7520  -13.9480   46.2080 O.2    62  ILE62      -0.2718
     60  CB        49.8270  -15.0430   47.7790 C.3    62  ILE62       0.0266
     61  CG1       50.8990  -16.0180   48.2480 C.3    62  ILE62       0.0019
     62  CG2       49.6150  -13.9510   48.8010 C.3    62  ILE62       0.0020
     63  CD1       50.5630  -16.6800   49.5600 C.3    62  ILE62       0.0001
     64  N         46.2660  -14.8650   47.6250 N.am   63  GLY63      -0.1942
     65  CA        45.2030  -13.9620   47.2210 C.3    63  GLY63       0.2014
     66  C         44.9300  -14.1080   45.7380 C.2    63  GLY63       0.2640
     67  O         44.3170  -15.0990   45.3140 O.2    63  GLY63      -0.2714
     68  N         45.3880  -13.1310   44.9560 N.am   64  SER64      -0.1935
     69  CA        45.2050  -13.1530   43.5130 C.3    64  SER64       0.2055
     70  C         46.5550  -13.2570   42.8220 C.2    64  SER64       0.2643
     71  O         46.6890  -12.9310   41.6320 O.2    64  SER64      -0.2714
     72  CB        44.5040  -11.8860   43.0450 C.3    64  SER64       0.2130
     73  OG        45.2620  -10.7320   43.3450 O.3    64  SER64      -0.2179
     74  N         47.5490  -13.7140   43.5780 N.am   65  THR65      -0.1950
     75  CA        48.9030  -13.8760   43.0600 C.3    65  THR65       0.1897
     76  C         49.2400  -15.3640   42.8910 C.2    65  THR65       0.2313
     77  O         48.9000  -16.1800   43.7450 O.2    65  THR65      -0.2863
     78  CB        49.9360  -13.2290   44.0110 C.3    65  THR65       0.1794
     79  OG1       49.5860  -11.8580   44.2410 O.3    65  THR65      -0.2208
     80  CG2       51.3220  -13.2860   43.4010 C.3    65  THR65       0.0378
@<TRIPOS>BOND
     1    48    49    1
     2    51    50    2
     3     6     7    1
     4     6     5    1
     5     7     1    1
     6    50    49    1
     7    49    52    1
     8    14    16   ar
     9    14    13   ar
    10     8     9    1
    11    16    18   ar
    12     1     2    1
    13     3     2    1
    14     3     4    2
    15     9    12    1
    16     9    10    1
    17     5     2    1
    18    12    13    1
    19    54    53    1
    20    13    15   ar
    21    52    53    1
    22    18    17   ar
    23    71    70    2
    24    43    42    2
    25    53    55    1
    26    10    11    2
    27    10    19   am
    28    42    41    1
    29    15    17   ar
    30    28    29    1
    31    70    69    1
    32    70    74   am
    33    40    41    1
    34    76    75    1
    35    76    77    2
    36    19    20    1
    37    72    73    1
    38    72    69    1
    39    75    74    1
    40    75    78    1
    41    41    44    1
    42    80    78    1
    43    69    68    1
    44    29    30    1
    45    29    32    1
    46    78    79    1
    47    21    20    1
    48    21    22    2
    49    20    23    1
    50    30    31    2
    51    44    45    1
    52    32    33    1
    53    68    66   am
    54    23    24    1
    55    67    66    2
    56    34    33   ar
    57    34    36   ar
    58    45    47    1
    59    45    46    1
    60    66    65    1
    61    33    35   ar
    62    59    58    2
    63    24    25    1
    64    56    57    1
    65    36    38   ar
    66    58    57    1
    67    58    64   am
    68    35    37   ar
    69    65    64    1
    70    25    26    1
    71    57    60    1
    72    60    61    1
    73    60    62    1
    74    38    37   ar
    75    38    39    1
    76    61    63    1
    77    26    27    1
