@<TRIPOS>MOLECULE
tmp/2gvdA01.pdb
 111 105 0 0 0
SMALL
GASTEIGER

@<TRIPOS>ATOM
      1  N         51.7300  -11.4300   62.6130 N.3    21  ASP21      -0.1225
      2  CA        52.9760  -11.3810   61.8710 C.3    21  ASP21       0.1805
      3  C         54.1820  -11.1720   62.7990 C.2    21  ASP21       0.2598
      4  O         54.0960  -10.4740   63.8130 O.2    21  ASP21      -0.2718
      5  CB        52.9060  -10.2610   60.8440 C.3    21  ASP21       0.1424
      6  CG        54.0400  -10.3160   59.8480 C.2    21  ASP21       0.3668
      7  OD1       54.1980   -9.3660   59.0620 O.co2  21  ASP21      -0.2456
      8  OD2       54.7790  -11.3100   59.8320 O.co2  21  ASP21      -0.2456
      9  N         55.3040  -11.7930   62.4530 N.am   22  ILE22      -0.1966
     10  CA        56.5210  -11.6760   63.2440 C.3    22  ILE22       0.1727
     11  C         57.1150  -10.2770   63.0780 C.2    22  ILE22       0.2616
     12  O         57.5010   -9.8680   61.9890 O.2    22  ILE22      -0.2715
     13  CB        57.5720  -12.7190   62.7940 C.3    22  ILE22       0.0290
     14  CG1       56.9890  -14.1370   62.8550 C.3    22  ILE22       0.0022
     15  CG2       58.8090  -12.6010   63.6590 C.3    22  ILE22       0.0023
     16  CD1       56.6670  -14.6060   64.2460 C.3    22  ILE22       0.0001
     17  N         57.1780   -9.5380   64.1690 N.am   23  GLU23      -0.1963
     18  CA        57.7400   -8.2120   64.1210 C.3    23  GLU23       0.1733
     19  C         59.2420   -8.3040   63.9230 C.2    23  GLU23       0.2617
     20  O         59.9610   -8.8070   64.7860 O.2    23  GLU23      -0.2715
     21  CB        57.4390   -7.4720   65.4170 C.3    23  GLU23       0.0429
     22  CG        58.1480   -6.1230   65.5290 C.3    23  GLU23       0.1163
     23  CD        57.7870   -5.3560   66.7930 C.2    23  GLU23       0.3649
     24  OE1       56.6000   -4.9610   66.9240 O.co2  23  GLU23      -0.2457
     25  OE2       58.6940   -5.1530   67.6430 O.co2  23  GLU23      -0.2457
     26  N         59.7120   -7.8050   62.7860 N.am   24  GLY24      -0.1940
     27  CA        61.1360   -7.8270   62.5050 C.3    24  GLY24       0.2014
     28  C         61.6810   -9.2400   62.4580 C.2    24  GLY24       0.2639
     29  O         62.3740   -9.6990   63.3810 O.2    24  GLY24      -0.2714
     30  N         61.3590   -9.9350   61.3720 N.am   25  PHE25      -0.1959
     31  CA        61.8020  -11.3070   61.1950 C.3    25  PHE25       0.1771
     32  C         63.1780  -11.3130   60.5590 C.2    25  PHE25       0.2620
     33  O         63.9970  -12.1960   60.8470 O.2    25  PHE25      -0.2715
     34  CB        60.8190  -12.0760   60.3100 C.3    25  PHE25       0.0574
     35  CG        61.0210  -13.5630   60.3280 C.ar   25  PHE25      -0.0200
     36  CD1       60.9180  -14.2700   61.5180 C.ar   25  PHE25      -0.0042
     37  CD2       61.2980  -14.2570   59.1580 C.ar   25  PHE25      -0.0042
     38  CE1       61.0870  -15.6400   61.5460 C.ar   25  PHE25      -0.0003
     39  CE2       61.4690  -15.6280   59.1770 C.ar   25  PHE25      -0.0003
     40  CZ        61.3630  -16.3220   60.3730 C.ar   25  PHE25      -0.0000
     41  N         63.4330  -10.3330   59.6920 N.am   26  THR26      -0.1951
     42  CA        64.7320  -10.2460   59.0370 C.3    26  THR26       0.1897
     43  C         65.7720   -9.9430   60.1180 C.2    26  THR26       0.2313
     44  O         66.9710  -10.1780   59.9370 O.2    26  THR26      -0.2863
     45  CB        64.7560   -9.1360   57.9790 C.3    26  THR26       0.1794
     46  OG1       64.3750   -7.9070   58.5910 O.3    26  THR26      -0.2208
     47  CG2       63.7880   -9.4240   56.8720 C.3    26  THR26       0.0378
     48  N         66.6190  -13.1520   60.9680 N.3    29  ALA29      -0.1245
     49  CA        66.8510  -13.8320   59.6980 C.3    29  ALA29       0.1562
     50  C         68.2730  -13.5980   59.2100 C.2    29  ALA29       0.2260
     51  O         68.7890  -14.3480   58.3810 O.2    29  ALA29      -0.2867
     52  CB        65.8640  -13.3450   58.6590 C.3    29  ALA29       0.0290
     53  N         69.7150  -20.1530   57.4490 N.3    34  ALA34      -0.1245
     54  CA        68.5470  -20.3480   56.5960 C.3    34  ALA34       0.1562
     55  C         67.7050  -21.5210   57.0640 C.2    34  ALA34       0.2260
     56  O         66.5060  -21.5620   56.8270 O.2    34  ALA34      -0.2867
     57  CB        68.9860  -20.5680   55.1600 C.3    34  ALA34       0.0290
     58  N         66.0440  -20.9210   60.9960 N.3    37  LEU37      -0.1231
     59  CA        64.8170  -20.1490   60.9070 C.3    37  LEU37       0.1693
     60  C         63.6390  -21.0640   60.6120 C.2    37  LEU37       0.2591
     61  O         62.6430  -21.0700   61.3570 O.2    37  LEU37      -0.2718
     62  CB        64.9380  -19.0990   59.8060 C.3    37  LEU37       0.0284
     63  CG        65.9170  -17.9560   60.0300 C.3    37  LEU37       0.0019
     64  CD1       65.9580  -17.0790   58.7900 C.3    37  LEU37       0.0001
     65  CD2       65.4770  -17.1580   61.2450 C.3    37  LEU37       0.0001
     66  N         63.7570  -21.8340   59.5300 N.am   38  VAL38      -0.1980
     67  CA        62.6960  -22.7500   59.1280 C.3    38  VAL38       0.1595
     68  C         62.3080  -23.6510   60.2960 C.2    38  VAL38       0.2287
     69  O         61.1680  -24.0840   60.3940 O.2    38  VAL38      -0.2864
     70  CB        63.1330  -23.6170   57.9320 C.3    38  VAL38       0.0276
     71  CG1       61.9930  -24.5080   57.4820 C.3    38  VAL38       0.0022
     72  CG2       63.5860  -22.7300   56.7910 C.3    38  VAL38       0.0022
     73  N         60.4940  -21.3280   62.7840 N.3    41  LEU41      -0.1245
     74  CA        59.2530  -21.0480   62.0690 C.3    41  LEU41       0.1561
     75  C         58.2780  -22.2240   62.2240 C.2    41  LEU41       0.2260
     76  O         57.1160  -22.0490   62.5920 O.2    41  LEU41      -0.2867
     77  CB        59.5610  -20.8150   60.5870 C.3    41  LEU41       0.0270
     78  CG        58.4860  -20.1280   59.7500 C.3    41  LEU41       0.0019
     79  CD1       58.3260  -18.6790   60.1960 C.3    41  LEU41       0.0001
     80  CD2       58.8970  -20.1790   58.2920 C.3    41  LEU41       0.0001
     81  N         51.7120  -17.8270   55.7810 N.3    63  LEU63      -0.1231
     82  CA        52.4350  -17.0830   54.7530 C.3    63  LEU63       0.1693
     83  C         53.7730  -16.5730   55.2730 C.2    63  LEU63       0.2593
     84  O         53.8760  -15.4660   55.7780 O.2    63  LEU63      -0.2718
     85  CB        51.5890  -15.9040   54.2660 C.3    63  LEU63       0.0284
     86  CG        50.1430  -16.2200   53.8740 C.3    63  LEU63       0.0019
     87  CD1       49.4960  -14.9770   53.3180 C.3    63  LEU63       0.0001
     88  CD2       50.0960  -17.3290   52.8410 C.3    63  LEU63       0.0001
     89  N         54.8040  -17.3940   55.1440 N.am   64  GLY64      -0.1942
     90  CA        56.1130  -16.9960   55.6170 C.3    64  GLY64       0.2014
     91  C         56.1000  -16.8590   57.1220 C.2    64  GLY64       0.2638
     92  O         56.1140  -17.8590   57.8560 O.2    64  GLY64      -0.2714
     93  N         56.0720  -15.6100   57.5800 N.am   65  ASP65      -0.1971
     94  CA        56.0420  -15.3280   59.0130 C.3    65  ASP65       0.1709
     95  C         54.6850  -14.7500   59.4350 C.2    65  ASP65       0.2293
     96  O         54.5430  -14.1750   60.5170 O.2    65  ASP65      -0.2864
     97  CB        57.1570  -14.3550   59.3860 C.3    65  ASP65       0.1436
     98  CG        56.8850  -12.9570   58.8930 C.2    65  ASP65       0.3671
     99  OD1       56.3230  -12.8160   57.7900 O.co2  65  ASP65      -0.2456
    100  OD2       57.2360  -11.9950   59.6000 O.co2  65  ASP65      -0.2456
    101  N         52.0210   -9.3860   66.0820 N.3   109  ARG109     -0.1245
    102  CA        51.1290   -8.2670   65.8520 C.3   109  ARG109      0.1563
    103  C         49.7530   -8.8200   65.4930 C.2   109  ARG109      0.2260
    104  O         49.4520   -9.0690   64.3260 O.2   109  ARG109     -0.2867
    105  CB        51.6650   -7.4090   64.7130 C.3   109  ARG109      0.0307
    106  CG        52.4760   -6.2180   65.1580 C.3   109  ARG109      0.0489
    107  CD        53.3620   -5.7620   64.0340 C.3   109  ARG109      0.2205
    108  NE        52.6380   -5.6740   62.7700 N.pl3 109  ARG109     -0.0865
    109  CZ        53.2160   -5.8220   61.5810 C.cat 109  ARG109      0.5346
    110  NH1       54.5250   -6.0650   61.5060 N.pl3 109  ARG109      0.1354
    111  NH2       52.4870   -5.7400   60.4680 N.pl3 109  ARG109      0.1354
@<TRIPOS>BOND
     1    88    86    1
     2    87    86    1
     3    86    85    1
     4    85    82    1
     5    82    83    1
     6    82    81    1
     7    89    83   am
     8    89    90    1
     9    57    54    1
    10    83    84    2
    11    90    91    1
    12    54    55    1
    13    54    53    1
    14    72    70    1
    15    56    55    2
    16    47    45    1
    17    91    93   am
    18    91    92    2
    19    71    70    1
    20    93    94    1
    21    99    98   ar
    22    70    67    1
    23    45    46    1
    24    45    42    1
    25    80    78    1
    26    51    50    2
    27    52    49    1
    28    64    63    1
    29    98    97    1
    30    98   100   ar
    31    94    97    1
    32    94    95    1
    33    42    41    1
    34    42    43    1
    35     7     6   ar
    36    67    66    1
    37    67    68    1
    38    37    39   ar
    39    37    35   ar
    40    39    40   ar
    41    50    49    1
    42    95    96    2
    43    66    60   am
    44    41    32   am
    45    49    48    1
    46    78    79    1
    47    78    77    1
    48    62    63    1
    49    62    59    1
    50     8     6   ar
    51     6     5    1
    52    44    43    2
    53    63    65    1
    54    68    69    2
    55    34    35    1
    56    34    31    1
    57    35    36   ar
    58    40    38   ar
    59   111   109    1
    60    32    33    2
    61    32    31    1
    62    77    74    1
    63    60    59    1
    64    60    61    2
    65     5     2    1
    66    59    58    1
    67    31    30    1
    68    30    28   am
    69   110   109    1
    70    36    38   ar
    71   109   108    2
    72     2     1    1
    73     2     3    1
    74    12    11    2
    75    74    75    1
    76    74    73    1
    77    75    76    2
    78     9     3   am
    79     9    10    1
    80    28    27    1
    81    28    29    2
    82    27    26    1
    83   108   107    1
    84    26    19   am
    85    13    14    1
    86    13    10    1
    87    13    15    1
    88     3     4    2
    89    14    16    1
    90    11    10    1
    91    11    17   am
    92    19    18    1
    93    19    20    2
    94   107   106    1
    95    18    17    1
    96    18    21    1
    97   104   103    2
    98   105   106    1
    99   105   102    1
   100    21    22    1
   101   103   102    1
   102    22    23    1
   103   102   101    1
   104    23    24   ar
   105    23    25   ar
