@<TRIPOS>MOLECULE
tmp/2gvdB01.pdb
 102 97 0 0 0
SMALL
GASTEIGER

@<TRIPOS>ATOM
      1  N         56.5810  -15.2140   40.8090 N.3    11  PHE11      -0.1241
      2  CA        55.3700  -14.6140   41.3550 C.3    11  PHE11       0.1605
      3  C         54.6920  -13.8340   40.2510 C.2    11  PHE11       0.2264
      4  O         55.3180  -12.9870   39.6370 O.2    11  PHE11      -0.2867
      5  CB        55.6850  -13.6700   42.5320 C.3    11  PHE11       0.0534
      6  CG        56.0670  -14.3790   43.7940 C.ar   11  PHE11      -0.0203
      7  CD1       57.3400  -14.8400   43.9890 C.ar   11  PHE11      -0.0042
      8  CD2       55.1450  -14.5800   44.7810 C.ar   11  PHE11      -0.0042
      9  CE1       57.6970  -15.4980   45.1610 C.ar   11  PHE11      -0.0003
     10  CE2       55.4810  -15.2310   45.9480 C.ar   11  PHE11      -0.0003
     11  CZ        56.7660  -15.6930   46.1420 C.ar   11  PHE11      -0.0000
     12  N         48.6860  -16.8390   46.5400 N.3    62  ILE62      -0.1245
     13  CA        48.5140  -15.7900   47.5420 C.3    62  ILE62       0.1561
     14  C         47.4690  -14.7830   47.0650 C.2    62  ILE62       0.2260
     15  O         47.7520  -13.9480   46.2080 O.2    62  ILE62      -0.2867
     16  CB        49.8270  -15.0430   47.7790 C.3    62  ILE62       0.0252
     17  CG1       50.8990  -16.0180   48.2480 C.3    62  ILE62       0.0019
     18  CG2       49.6150  -13.9510   48.8010 C.3    62  ILE62       0.0019
     19  CD1       50.5630  -16.6800   49.5600 C.3    62  ILE62       0.0001
     20  N         52.0460  -18.4090   42.5250 N.3    67  MET67      -0.1245
     21  CA        53.4230  -18.7310   42.9320 C.3    67  MET67       0.1570
     22  C         53.8120  -20.1360   42.4850 C.2    67  MET67       0.2261
     23  O         53.1700  -21.1240   42.8650 O.2    67  MET67      -0.2867
     24  CB        53.5780  -18.6520   44.4490 C.3    67  MET67       0.0387
     25  CG        54.9860  -18.8460   44.9120 C.3    67  MET67       0.0595
     26  SD        55.1560  -18.9380   46.6990 S.3    67  MET67      -0.1393
     27  CE        56.4040  -20.1340   46.9010 C.3    67  MET67       0.0692
     28  N         64.6610  -23.9060   50.7370 N.3   118  ILE118     -0.1245
     29  CA        64.4360  -25.0500   51.6090 C.3   118  ILE118      0.1561
     30  C         62.9950  -25.5350   51.4630 C.2   118  ILE118      0.2260
     31  O         62.0780  -24.9960   52.1070 O.2   118  ILE118     -0.2867
     32  CB        64.6880  -24.6820   53.0810 C.3   118  ILE118      0.0252
     33  CG1       66.1280  -24.2210   53.2490 C.3   118  ILE118      0.0019
     34  CG2       64.4100  -25.8740   53.9740 C.3   118  ILE118      0.0019
     35  CD1       66.4610  -23.7460   54.6450 C.3   118  ILE118      0.0001
     36  N         61.2300  -22.1680   51.5420 N.3   132  TRP132     -0.1227
     37  CA        61.7270  -21.0380   52.3070 C.3   132  TRP132      0.1737
     38  C         63.1300  -20.6530   51.8480 C.2   132  TRP132      0.2596
     39  O         63.7900  -21.4190   51.1390 O.2   132  TRP132     -0.2718
     40  CB        61.7640  -21.3980   53.7850 C.3   132  TRP132      0.0564
     41  CG        60.4360  -21.5220   54.4030 C.ar  132  TRP132      0.0003
     42  CD1       59.6160  -20.5030   54.7730 C.ar  132  TRP132      0.0946
     43  CD2       59.7300  -22.7330   54.6910 C.ar  132  TRP132      0.0152
     44  NE1       58.4350  -20.9990   55.2730 N.ar  132  TRP132     -0.2442
     45  CE2       58.4780  -22.3710   55.2330 C.ar  132  TRP132      0.0810
     46  CE3       60.0360  -24.0950   54.5420 C.ar  132  TRP132      0.0012
     47  CZ2       57.5190  -23.3170   55.6280 C.ar  132  TRP132      0.0191
     48  CZ3       59.0850  -25.0390   54.9360 C.ar  132  TRP132      0.0001
     49  CH2       57.8400  -24.6420   55.4720 C.ar  132  TRP132      0.0015
     50  N         63.5810  -19.4670   52.2560 N.am  133  GLY133     -0.1942
     51  CA        64.9040  -19.0010   51.8730 C.3   133  GLY133      0.2014
     52  C         64.8740  -17.6000   51.3020 C.2   133  GLY133      0.2638
     53  O         63.8230  -17.1370   50.8520 O.2   133  GLY133     -0.2714
     54  N         66.0220  -16.9320   51.3150 N.am  134  ASN134     -0.1972
     55  CA        66.1130  -15.5730   50.8100 C.3   134  ASN134      0.1688
     56  C         65.6870  -15.4960   49.3450 C.2   134  ASN134      0.2292
     57  O         65.1340  -14.4880   48.8840 O.2   134  ASN134     -0.2864
     58  CB        67.5440  -15.0480   50.9770 C.3   134  ASN134      0.1181
     59  CG        67.7070  -13.6220   50.4620 C.2   134  ASN134      0.2629
     60  OD1       67.0430  -12.6760   50.9310 O.2   134  ASN134     -0.2716
     61  ND2       68.5870  -13.4630   49.4770 N.am  134  ASN134     -0.0877
     62  N         63.2410  -16.8470   47.6360 N.3   136  VAL136     -0.1231
     63  CA        61.8280  -16.5340   47.4380 C.3   136  VAL136      0.1692
     64  C         61.4970  -15.0590   47.7540 C.2   136  VAL136      0.2592
     65  O         60.7200  -14.4090   47.0470 O.2   136  VAL136     -0.2718
     66  CB        60.9160  -17.4710   48.3130 C.3   136  VAL136      0.0266
     67  CG1       61.2430  -18.9230   48.0410 C.3   136  VAL136      0.0020
     68  CG2       61.0820  -17.1550   49.8040 C.3   136  VAL136      0.0020
     69  N         62.0920  -14.5410   48.8200 N.am  137  ASN137     -0.1974
     70  CA        61.8550  -13.1710   49.2290 C.3   137  ASN137      0.1688
     71  C         62.2000  -12.2080   48.1070 C.2   137  ASN137      0.2292
     72  O         61.3860  -11.3540   47.7450 O.2   137  ASN137     -0.2864
     73  CB        62.6810  -12.8530   50.4740 C.3   137  ASN137      0.1181
     74  CG        62.5520  -11.4030   50.9090 C.2   137  ASN137      0.2629
     75  OD1       63.1060  -10.5240   50.2770 O.2   137  ASN137     -0.2716
     76  ND2       61.8240  -11.1530   51.9910 N.am  137  ASN137     -0.0877
     77  N         59.6730  -12.3710   45.2420 N.3   140  SER140     -0.1202
     78  CA        58.4790  -11.6450   45.6260 C.3   140  SER140      0.2020
     79  C         58.7190  -10.1380   45.5140 C.2   140  SER140      0.2618
     80  O         57.9600   -9.4200   44.8650 O.2   140  SER140     -0.2717
     81  CB        58.1020  -11.9910   47.0660 C.3   140  SER140      0.2103
     82  OG        57.4340  -10.8960   47.6640 O.3   140  SER140     -0.2182
     83  N         59.7700   -9.6630   46.1670 N.am  141  ARG141     -0.1979
     84  CA        60.0910   -8.2540   46.1380 C.3   141  ARG141      0.1597
     85  C         60.1990   -7.7370   44.7180 C.2   141  ARG141      0.2287
     86  O         59.9820   -6.5560   44.4790 O.2   141  ARG141     -0.2864
     87  CB        61.3870   -8.0190   46.8830 C.3   141  ARG141      0.0334
     88  CG        61.2530   -8.1650   48.3960 C.3   141  ARG141      0.0492
     89  CD        60.3100   -7.1390   48.9650 C.3   141  ARG141      0.2205
     90  NE        60.7480   -5.7850   48.6320 N.pl3 141  ARG141     -0.0865
     91  CZ        60.0210   -4.6940   48.8520 C.cat 141  ARG141      0.5346
     92  NH1       58.8220   -4.7990   49.4070 N.pl3 141  ARG141      0.1354
     93  NH2       60.4820   -3.5000   48.5050 N.pl3 141  ARG141      0.1354
     94  N         64.4000   -5.0060   51.9720 N.3   177  LYS177     -0.1245
     95  CA        64.7110   -4.9170   53.3910 C.3   177  LYS177      0.1561
     96  C         65.5920   -6.0620   53.8580 C.2   177  LYS177      0.2260
     97  O         65.3310   -7.2170   53.5460 O.2   177  LYS177     -0.2867
     98  CB        63.4230   -4.8910   54.2240 C.3   177  LYS177      0.0271
     99  CG        63.6290   -4.3640   55.6410 C.3   177  LYS177      0.0035
    100  CD        62.5160   -4.7730   56.5880 C.3   177  LYS177      0.0206
    101  CE        62.5550   -6.2870   56.8520 C.3   177  LYS177      0.1093
    102  NZ        61.5790   -6.7220   57.9080 N.3   177  LYS177     -0.1314
@<TRIPOS>BOND
     1     4     3    2
     2     3     2    1
     3     1     2    1
     4     2     5    1
     5    22    23    2
     6    22    21    1
     7    20    21    1
     8     5     6    1
     9    21    24    1
    10     6     7   ar
    11     6     8   ar
    12     7     9   ar
    13    24    25    1
    14    86    85    2
    15    85    84    1
    16     8    10   ar
    17    80    79    2
    18    25    26    1
    19     9    11   ar
    20    77    78    1
    21    79    78    1
    22    79    83   am
    23    78    81    1
    24    10    11   ar
    25    84    83    1
    26    84    87    1
    27    15    14    2
    28    12    13    1
    29    26    27    1
    30    87    88    1
    31    65    64    2
    32    14    13    1
    33    81    82    1
    34    63    62    1
    35    63    64    1
    36    63    66    1
    37    13    16    1
    38    72    71    2
    39    64    69   am
    40    16    17    1
    41    16    18    1
    42    67    66    1
    43    71    70    1
    44    17    19    1
    45    66    68    1
    46    88    89    1
    47    93    91    1
    48    90    91    2
    49    90    89    1
    50    69    70    1
    51    91    92    1
    52    57    56    2
    53    70    73    1
    54    56    55    1
    55    61    59   am
    56    75    74    2
    57    59    60    2
    58    59    58    1
    59    73    74    1
    60    28    29    1
    61    55    58    1
    62    55    54    1
    63    53    52    2
    64    74    76   am
    65    39    38    2
    66    52    54   am
    67    52    51    1
    68    30    29    1
    69    30    31    2
    70    36    37    1
    71    29    32    1
    72    38    50   am
    73    38    37    1
    74    51    50    1
    75    94    95    1
    76    37    40    1
    77    32    33    1
    78    32    34    1
    79    33    35    1
    80    95    96    1
    81    95    98    1
    82    97    96    2
    83    40    41    1
    84    98    99    1
    85    41    43   ar
    86    41    42   ar
    87    46    43   ar
    88    46    48   ar
    89    43    45   ar
    90    42    44   ar
    91    48    49   ar
    92    45    44   ar
    93    45    47   ar
    94    49    47   ar
    95    99   100    1
    96   100   101    1
    97   101   102    1
