@<TRIPOS>MOLECULE
tmp/2gvfA00.pdb
 191 185 0 0 0
SMALL
GASTEIGER

@<TRIPOS>ATOM
      1  N        211.3060   -6.5410   53.2980 N.3    42  THR42      -0.1203
      2  CA       210.5730   -7.1720   52.2140 C.3    42  THR42       0.1994
      3  C        209.3920   -6.3650   51.6950 C.2    42  THR42       0.2618
      4  O        209.0050   -6.5220   50.5390 O.2    42  THR42      -0.2717
      5  CB       210.0710   -8.5780   52.6440 C.3    42  THR42       0.1784
      6  OG1      208.8800   -8.4560   53.4390 O.3    42  THR42      -0.2211
      7  CG2      211.1360   -9.2810   53.4960 C.3    42  THR42       0.0376
      8  N        208.8030   -5.5210   52.5390 N.am   43  GLN43      -0.1965
      9  CA       207.6410   -4.7470   52.1170 C.3    43  GLN43       0.1733
     10  C        207.3820   -3.4890   52.9270 C.2    43  GLN43       0.2617
     11  O        207.9100   -3.3230   54.0250 O.2    43  GLN43      -0.2715
     12  CB       206.3990   -5.6270   52.1800 C.3    43  GLN43       0.0408
     13  CG       206.0650   -6.1090   53.5720 C.3    43  GLN43       0.0908
     14  CD       204.8880   -7.0520   53.5870 C.2    43  GLN43       0.2608
     15  OE1      203.9090   -6.8770   52.8450 O.2    43  GLN43      -0.2717
     16  NE2      204.9580   -8.0520   54.4500 N.am   43  GLN43      -0.0878
     17  N        206.5490   -2.6160   52.3760 N.am   44  THR44      -0.1937
     18  CA       206.1990   -1.3720   53.0300 C.3    44  THR44       0.2028
     19  C        204.6910   -1.2630   53.1210 C.2    44  THR44       0.2642
     20  O        203.9710   -1.5970   52.1850 O.2    44  THR44      -0.2714
     21  CB       206.7740   -0.1660   52.2780 C.3    44  THR44       0.1808
     22  OG1      206.5040    1.0390   53.0100 O.3    44  THR44      -0.2208
     23  CG2      206.2180   -0.0870   50.8750 C.3    44  THR44       0.0379
     24  N        204.2300   -0.8110   54.2770 N.am   45  PHE45      -0.1973
     25  CA       202.8130   -0.6660   54.5640 C.3    45  PHE45       0.1639
     26  C        202.6140    0.5160   55.5100 C.2    45  PHE45       0.2290
     27  O        203.4740    1.3960   55.5820 O.2    45  PHE45      -0.2864
     28  CB       202.2490   -1.9790   55.1520 C.3    45  PHE45       0.0560
     29  CG       203.1580   -2.6540   56.1590 C.ar   45  PHE45      -0.0200
     30  CD1      204.3880   -3.1860   55.7580 C.ar   45  PHE45      -0.0042
     31  CD2      202.7890   -2.7250   57.5050 C.ar   45  PHE45      -0.0042
     32  CE1      205.2440   -3.7680   56.6830 C.ar   45  PHE45      -0.0003
     33  CE2      203.6360   -3.3050   58.4510 C.ar   45  PHE45      -0.0003
     34  CZ       204.8770   -3.8320   58.0410 C.ar   45  PHE45      -0.0000
     35  N        198.9390   -4.4360   60.2700 N.3    57  VAL57      -0.1245
     36  CA       198.6110   -5.8090   59.8730 C.3    57  VAL57       0.1561
     37  C        199.7260   -6.8060   60.1760 C.2    57  VAL57       0.2260
     38  O        200.9020   -6.5370   59.9310 O.2    57  VAL57      -0.2867
     39  CB       198.2420   -5.9250   58.3570 C.3    57  VAL57       0.0252
     40  CG1      196.9160   -5.2560   58.0810 C.3    57  VAL57       0.0019
     41  CG2      199.3310   -5.3290   57.4860 C.3    57  VAL57       0.0019
     42  N        200.1120   -9.3810   58.6150 N.3    59  HIS59      -0.1241
     43  CA       200.5340   -9.7930   57.2830 C.3    59  HIS59       0.1621
     44  C        201.7590   -8.9890   56.8630 C.2    59  HIS59       0.2264
     45  O        202.5620   -9.4350   56.0440 O.2    59  HIS59      -0.2867
     46  CB       199.4030   -9.5750   56.2700 C.3    59  HIS59       0.0745
     47  CG       199.8730   -9.5020   54.8520 C.ar   59  HIS59       0.0817
     48  ND1      200.3620   -8.3410   54.2910 N.ar   59  HIS59      -0.2268
     49  CD2      199.9790  -10.4550   53.8950 C.ar   59  HIS59       0.1154
     50  CE1      200.7540   -8.5800   53.0510 C.ar   59  HIS59       0.1986
     51  NE2      200.5320   -9.8560   52.7870 N.ar   59  HIS59      -0.2212
     52  N        194.5550  -10.6020   62.2350 N.3    83  ASP83      -0.1239
     53  CA       195.5700   -9.9950   61.3800 C.3    83  ASP83       0.1674
     54  C        196.0990   -8.6990   61.9930 C.2    83  ASP83       0.2266
     55  O        196.4350   -7.7660   61.2720 O.2    83  ASP83      -0.2867
     56  CB       194.9890   -9.7320   59.9780 C.3    83  ASP83       0.1410
     57  CG       196.0560   -9.6330   58.9110 C.2    83  ASP83       0.3668
     58  OD1      197.1990  -10.0260   59.2000 O.co2  83  ASP83      -0.2456
     59  OD2      195.7620   -9.1830   57.7810 O.co2  83  ASP83      -0.2456
     60  N        198.6160    5.5390   51.5840 N.3   111  ARG111     -0.1231
     61  CA       200.0020    5.9370   51.8430 C.3   111  ARG111      0.1694
     62  C        200.4480    7.1530   51.0600 C.2   111  ARG111      0.2592
     63  O        201.5300    7.6810   51.3020 O.2   111  ARG111     -0.2718
     64  CB       200.9700    4.7930   51.5520 C.3   111  ARG111      0.0321
     65  CG       200.9620    4.3070   50.1120 C.3   111  ARG111      0.0489
     66  CD       202.3050    3.7020   49.7520 C.3   111  ARG111      0.2205
     67  NE       202.7780    2.8280   50.8160 N.pl3 111  ARG111     -0.0865
     68  CZ       203.9710    2.9230   51.3850 C.cat 111  ARG111      0.5346
     69  NH1      204.8270    3.8480   50.9970 N.pl3 111  ARG111      0.1354
     70  NH2      204.3060    2.0950   52.3510 N.pl3 111  ARG111      0.1354
     71  N        199.6370    7.5650   50.0910 N.am  112  HIS112     -0.1976
     72  CA       199.9570    8.7320   49.2740 C.3   112  HIS112      0.1656
     73  C        199.2420    9.9480   49.8250 C.2   112  HIS112      0.2291
     74  O        199.2720   11.0200   49.2230 O.2   112  HIS112     -0.2864
     75  CB       199.5450    8.4880   47.8300 C.3   112  HIS112      0.0771
     76  CG       199.9910    7.1630   47.3100 C.ar  112  HIS112      0.0820
     77  ND1      201.3080    6.8880   47.0090 N.ar  112  HIS112     -0.2267
     78  CD2      199.3080    6.0070   47.1110 C.ar  112  HIS112      0.1154
     79  CE1      201.4210    5.6210   46.6530 C.ar  112  HIS112      0.1986
     80  NE2      200.2210    5.0660   46.7070 N.ar  112  HIS112     -0.2212
     81  N        183.4800   -4.6180   55.7500 N.3   125  ARG125     -0.1245
     82  CA       183.5100   -4.4400   54.3010 C.3   125  ARG125      0.1563
     83  C        182.9290   -3.0950   53.9520 C.2   125  ARG125      0.2260
     84  O        182.0750   -2.5600   54.6660 O.2   125  ARG125     -0.2867
     85  CB       182.6850   -5.5020   53.5860 C.3   125  ARG125      0.0307
     86  CG       183.4220   -6.7820   53.2670 C.3   125  ARG125      0.0489
     87  CD       184.4020   -6.6240   52.1100 C.3   125  ARG125      0.2205
     88  NE       184.8610   -7.9320   51.6390 N.pl3 125  ARG125     -0.0865
     89  CZ       184.4180   -8.5390   50.5360 C.cat 125  ARG125      0.5346
     90  NH1      183.5040   -7.9590   49.7590 N.pl3 125  ARG125      0.1354
     91  NH2      184.8660   -9.7520   50.2280 N.pl3 125  ARG125      0.1354
     92  N        194.2390   -1.8310   41.6760 N.3   134  ILE134     -0.1231
     93  CA       194.8120   -2.4820   42.8520 C.3   134  ILE134      0.1692
     94  C        196.1650   -1.9110   43.2830 C.2   134  ILE134      0.2592
     95  O        196.4400   -1.7740   44.4750 O.2   134  ILE134     -0.2718
     96  CB       194.8740   -4.0230   42.6240 C.3   134  ILE134      0.0266
     97  CG1      194.0850   -4.7340   43.7090 C.3   134  ILE134      0.0019
     98  CG2      196.3040   -4.5400   42.5900 C.3   134  ILE134      0.0020
     99  CD1      194.7180   -4.6310   45.0550 C.3   134  ILE134      0.0001
    100  N        196.9860   -1.5500   42.3030 N.am  135  SER135     -0.1952
    101  CA       198.3130   -0.9870   42.5330 C.3   135  SER135      0.1924
    102  C        198.2360    0.2790   43.3690 C.2   135  SER135      0.2314
    103  O        199.2170    0.6720   44.0130 O.2   135  SER135     -0.2863
    104  CB       198.9680   -0.6520   41.1960 C.3   135  SER135      0.2116
    105  OG       198.1400    0.2240   40.4390 O.3   135  SER135     -0.2180
    106  N        196.0740    0.7670   45.8990 N.3   137  LEU137     -0.1231
    107  CA       195.8800    0.4220   47.2970 C.3   137  LEU137      0.1693
    108  C        197.0920   -0.3030   47.9030 C.2   137  LEU137      0.2592
    109  O        197.2420   -0.3650   49.1260 O.2   137  LEU137     -0.2718
    110  CB       194.6210   -0.4220   47.4890 C.3   137  LEU137      0.0284
    111  CG       193.2590    0.2390   47.2990 C.3   137  LEU137      0.0019
    112  CD1      193.2800    1.6710   47.8260 C.3   137  LEU137      0.0001
    113  CD2      192.9080    0.2190   45.8370 C.3   137  LEU137      0.0001
    114  N        197.9510   -0.8700   47.0660 N.am  138  LYS138     -0.1966
    115  CA       199.1120   -1.5660   47.5850 C.3   138  LYS138      0.1728
    116  C        199.9480   -0.6470   48.4340 C.2   138  LYS138      0.2617
    117  O        200.1640    0.5150   48.0940 O.2   138  LYS138     -0.2715
    118  CB       199.9520   -2.1510   46.4640 C.3   138  LYS138      0.0311
    119  CG       199.2990   -3.3240   45.7890 C.3   138  LYS138      0.0038
    120  CD       200.2660   -3.9760   44.8400 C.3   138  LYS138      0.0206
    121  CE       199.5890   -5.0810   44.0610 C.3   138  LYS138      0.1093
    122  NZ       200.4940   -5.6270   43.0110 N.3   138  LYS138     -0.1314
    123  N        200.3870   -1.1770   49.5670 N.am  139  GLY139     -0.1940
    124  CA       201.1970   -0.4080   50.4860 C.3   139  GLY139      0.2014
    125  C        200.3640    0.3230   51.5130 C.2   139  GLY139      0.2640
    126  O        200.9200    0.8940   52.4340 O.2   139  GLY139     -0.2714
    127  N        199.0410    0.2690   51.3960 N.am  140  SER140     -0.1935
    128  CA       198.1770    0.9550   52.3530 C.3   140  SER140      0.2055
    129  C        197.5660    0.0960   53.4670 C.2   140  SER140      0.2643
    130  O        196.7980    0.6000   54.2800 O.2   140  SER140     -0.2714
    131  CB       197.0970    1.7600   51.6250 C.3   140  SER140      0.2130
    132  OG       197.6730    2.8240   50.8720 O.3   140  SER140     -0.2179
    133  N        197.9550   -1.1760   53.5550 N.am  141  SER141     -0.1949
    134  CA       197.4350   -2.0570   54.6080 C.3   141  SER141      0.1924
    135  C        197.8750   -1.4940   55.9470 C.2   141  SER141      0.2314
    136  O        199.0430   -1.1620   56.1280 O.2   141  SER141     -0.2863
    137  CB       198.0020   -3.4660   54.4760 C.3   141  SER141      0.2116
    138  OG       197.4980   -3.9000   53.2360 O.3   141  SER141     -0.2180
    139  N        192.5920   -0.6920   57.1060 N.3   156  PHE156     -0.1227
    140  CA       192.5400   -1.3450   55.7900 C.3   156  PHE156      0.1736
    141  C        193.2680   -2.6990   55.8030 C.2   156  PHE156      0.2595
    142  O        194.4150   -2.7940   56.2390 O.2   156  PHE156     -0.2718
    143  CB       193.1380   -0.4200   54.7250 C.3   156  PHE156      0.0547
    144  CG       193.1740   -1.0130   53.3350 C.ar  156  PHE156     -0.0202
    145  CD1      192.0650   -1.6690   52.8110 C.ar  156  PHE156     -0.0042
    146  CD2      194.3210   -0.8910   52.5450 C.ar  156  PHE156     -0.0042
    147  CE1      192.0990   -2.1870   51.5200 C.ar  156  PHE156     -0.0003
    148  CE2      194.3630   -1.4090   51.2500 C.ar  156  PHE156     -0.0003
    149  CZ       193.2530   -2.0570   50.7330 C.ar  156  PHE156     -0.0000
    150  N        192.6060   -3.7470   55.3240 N.am  157  ARG157     -0.1966
    151  CA       193.2180   -5.0640   55.3360 C.3   157  ARG157      0.1729
    152  C        193.4160   -5.6990   53.9730 C.2   157  ARG157      0.2616
    153  O        194.5200   -6.1520   53.6650 O.2   157  ARG157     -0.2715
    154  CB       192.4140   -6.0180   56.2210 C.3   157  ARG157      0.0348
    155  CG       193.0490   -7.3930   56.3450 C.3   157  ARG157      0.0492
    156  CD       192.1870   -8.3670   57.1010 C.3   157  ARG157      0.2205
    157  NE       192.7680   -9.7040   57.0290 N.pl3 157  ARG157     -0.0865
    158  CZ       192.2930  -10.7750   57.6630 C.cat 157  ARG157      0.5346
    159  NH1      191.2120  -10.6910   58.4320 N.pl3 157  ARG157      0.1354
    160  NH2      192.9080  -11.9420   57.5280 N.pl3 157  ARG157      0.1354
    161  N        192.3560   -5.7650   53.1690 N.am  158  ALA158     -0.1963
    162  CA       192.4450   -6.3890   51.8490 C.3   158  ALA158      0.1728
    163  C        191.6000   -5.7140   50.7860 C.2   158  ALA158      0.2616
    164  O        190.5770   -5.0930   51.0780 O.2   158  ALA158     -0.2715
    165  CB       192.0750   -7.8720   51.9350 C.3   158  ALA158      0.0334
    166  N        192.0380   -5.8570   49.5420 N.am  159  ALA159     -0.1963
    167  CA       191.3400   -5.2770   48.4150 C.3   159  ALA159      0.1728
    168  C        190.4990   -6.3390   47.7380 C.2   159  ALA159      0.2616
    169  O        190.9560   -7.4670   47.5420 O.2   159  ALA159     -0.2715
    170  CB       192.3360   -4.7130   47.4380 C.3   159  ALA159      0.0334
    171  N        189.2570   -5.9880   47.4220 N.am  160  VAL160     -0.1963
    172  CA       188.3420   -6.8900   46.7290 C.3   160  VAL160      0.1727
    173  C        188.3850   -6.4470   45.2730 C.2   160  VAL160      0.2616
    174  O        187.6040   -5.6010   44.8290 O.2   160  VAL160     -0.2715
    175  CB       186.9130   -6.7680   47.2700 C.3   160  VAL160      0.0290
    176  CG1      185.9860   -7.6750   46.4970 C.3   160  VAL160      0.0023
    177  CG2      186.8880   -7.1230   48.7360 C.3   160  VAL160      0.0023
    178  N        189.3380   -6.9990   44.5430 N.am  161  CYS161     -0.1968
    179  CA       189.5260   -6.6280   43.1610 C.3   161  CYS161      0.1712
    180  C        189.2700   -7.7610   42.1930 C.2   161  CYS161      0.2296
    181  O        189.2200   -8.9300   42.5810 O.2   161  CYS161     -0.2864
    182  CB       190.9500   -6.1310   42.9800 C.3   161  CYS161      0.0983
    183  SG       192.1330   -7.3030   43.6180 S.3   161  CYS161     -0.0798
    184  N        188.2710   -4.7300   52.4720 N.3   170  ASP170     -0.1239
    185  CA       188.0120   -5.4490   53.7010 C.3   170  ASP170      0.1674
    186  C        188.8820   -4.7480   54.7230 C.2   170  ASP170      0.2266
    187  O        190.0450   -4.4220   54.4500 O.2   170  ASP170     -0.2867
    188  CB       188.4390   -6.9160   53.5730 C.3   170  ASP170      0.1410
    189  CG       188.1880   -7.7220   54.8460 C.2   170  ASP170      0.3668
    190  OD1      189.1270   -7.8900   55.6580 O.co2 170  ASP170     -0.2456
    191  OD2      187.0480   -8.2040   55.0280 O.co2 170  ASP170     -0.2456
@<TRIPOS>BOND
     1   105   104    1
     2   104   101    1
     3    92    93    1
     4   180   181    2
     5   180   179    1
     6   100   101    1
     7   100    94   am
     8   101   102    1
     9    98    96    1
    10    96    93    1
    11    96    97    1
    12    93    94    1
    13   182   179    1
    14   182   183    1
    15   122   121    1
    16   179   178    1
    17    94    95    2
    18   102   103    2
    19    97    99    1
    20   121   120    1
    21   178   173   am
    22   174   173    2
    23   120   119    1
    24   173   172    1
    25   119   118    1
    26   113   111    1
    27   106   107    1
    28   118   115    1
    29   176   175    1
    30    79    80   ar
    31    79    77   ar
    32    80    78   ar
    33   172   175    1
    34   172   171    1
    35    77    76   ar
    36   114   115    1
    37   114   108   am
    38    78    76   ar
    39   175   177    1
    40   107   110    1
    41   107   108    1
    42   111   110    1
    43   111   112    1
    44    76    75    1
    45   171   168   am
    46   170   167    1
    47   169   168    2
    48   115   116    1
    49   168   167    1
    50    75    72    1
    51   108   109    2
    52   117   116    2
    53   167   166    1
    54   116   123   am
    55    74    73    2
    56    72    73    1
    57    72    71    1
    58   166   163   am
    59   123   124    1
    60    66    65    1
    61    66    67    1
    62    90    89    1
    63    71    62   am
    64    65    64    1
    65    91    89    1
    66   124   125    1
    67    89    88    2
    68     4     3    2
    69   149   148   ar
    70   149   147   ar
    71   163   164    2
    72   163   162    1
    73    67    68    2
    74   132   131    1
    75    23    21    1
    76    69    68    1
    77    62    63    2
    78    62    61    1
    79   148   146   ar
    80    68    70    1
    81   127   125   am
    82   127   128    1
    83   125   126    2
    84   147   145   ar
    85    64    61    1
    86    60    61    1
    87   131   128    1
    88    88    87    1
    89     3     2    1
    90     3     8   am
    91   162   165    1
    92   162   161    1
    93    87    86    1
    94     9    12    1
    95     9     8    1
    96     9    10    1
    97    12    13    1
    98    20    19    2
    99     2     5    1
   100     2     1    1
   101    21    22    1
   102    21    18    1
   103   128   129    1
   104    17    10   am
   105    17    18    1
   106   184   185    1
   107   146   144   ar
   108     5     6    1
   109     5     7    1
   110    51    50   ar
   111    51    49   ar
   112   145   144   ar
   113    15    14    2
   114    10    11    2
   115    18    19    1
   116    50    48   ar
   117    19    24   am
   118   161   152   am
   119   138   137    1
   120    86    85    1
   121   144   143    1
   122   129   133   am
   123   129   130    2
   124   133   134    1
   125    13    14    1
   126   188   185    1
   127   188   189    1
   128    85    82    1
   129    14    16   am
   130   153   152    2
   131   185   186    1
   132    49    47   ar
   133    83    82    1
   134    83    84    2
   135   152   151    1
   136    24    25    1
   137    48    47   ar
   138    82    81    1
   139   187   186    2
   140   137   134    1
   141    25    28    1
   142    25    26    1
   143   134   135    1
   144   143   140    1
   145   189   191   ar
   146   189   190   ar
   147    47    46    1
   148    28    29    1
   149   150   151    1
   150   150   141   am
   151   151   154    1
   152    26    27    2
   153    30    29   ar
   154    30    32   ar
   155   140   141    1
   156   140   139    1
   157   141   142    2
   158   135   136    2
   159    45    44    2
   160    29    31   ar
   161   154   155    1
   162    46    43    1
   163   155   156    1
   164    32    34   ar
   165    44    43    1
   166   157   156    1
   167   157   158    2
   168    43    42    1
   169    41    39    1
   170    31    33   ar
   171   160   158    1
   172   158   159    1
   173    59    57   ar
   174    34    33   ar
   175    40    39    1
   176    39    36    1
   177    57    58   ar
   178    57    56    1
   179    36    37    1
   180    36    35    1
   181    38    37    2
   182    56    53    1
   183    55    54    2
   184    53    54    1
   185    53    52    1
