@<TRIPOS>MOLECULE
tmp/2gvgB00.pdb
 141 134 0 0 0
SMALL
GASTEIGER

@<TRIPOS>ATOM
      1  N         71.7210   52.0850   51.9790 N.3   173  PHE173     -0.1241
      2  CA        72.6010   51.9770   50.8110 C.3   173  PHE173      0.1605
      3  C         74.0690   51.8420   51.2330 C.2   173  PHE173      0.2264
      4  O         74.9690   51.9730   50.4030 O.2   173  PHE173     -0.2867
      5  CB        72.5060   53.2370   49.9340 C.3   173  PHE173      0.0534
      6  CG        71.2610   53.3270   49.0730 C.ar  173  PHE173     -0.0203
      7  CD1       71.0940   54.4100   48.2080 C.ar  173  PHE173     -0.0042
      8  CD2       70.2770   52.3480   49.1050 C.ar  173  PHE173     -0.0042
      9  CE1       69.9730   54.5170   47.3920 C.ar  173  PHE173     -0.0003
     10  CE2       69.1430   52.4470   48.2860 C.ar  173  PHE173     -0.0003
     11  CZ        68.9930   53.5320   47.4320 C.ar  173  PHE173     -0.0000
     12  N         76.1110   49.2230   52.1850 N.3   175  TYR175     -0.1227
     13  CA        76.8950   47.9920   52.0750 C.3   175  TYR175      0.1736
     14  C         78.3360   48.2220   51.5980 C.2   175  TYR175      0.2595
     15  O         79.2930   47.7920   52.2460 O.2   175  TYR175     -0.2718
     16  CB        76.1920   47.0050   51.1400 C.3   175  TYR175      0.0548
     17  CG        76.4160   45.5400   51.4690 C.ar  175  TYR175     -0.0200
     18  CD1       77.5640   45.1100   52.1520 C.ar  175  TYR175     -0.0009
     19  CD2       75.5020   44.5690   51.0380 C.ar  175  TYR175     -0.0009
     20  CE1       77.7930   43.7440   52.3930 C.ar  175  TYR175      0.0417
     21  CE2       75.7210   43.2150   51.2650 C.ar  175  TYR175      0.0417
     22  CZ        76.8630   42.8050   51.9390 C.ar  175  TYR175      0.1957
     23  OH        77.0750   41.4520   52.1240 O.3   175  TYR175     -0.2866
     24  N         78.5010   48.9060   50.4730 N.am  176  ARG176     -0.1966
     25  CA        79.8440   49.1470   49.9530 C.3   176  ARG176      0.1729
     26  C         80.5960   50.2060   50.7690 C.2   176  ARG176      0.2616
     27  O         81.8270   50.2230   50.7920 O.2   176  ARG176     -0.2715
     28  CB        79.7680   49.6070   48.4940 C.3   176  ARG176      0.0348
     29  CG        79.5110   51.1060   48.3440 C.3   176  ARG176      0.0492
     30  CD        79.1400   51.4740   46.9200 C.3   176  ARG176      0.2205
     31  NE        77.9080   50.8070   46.5080 N.pl3 176  ARG176     -0.0865
     32  CZ        77.3990   50.8640   45.2810 C.cat 176  ARG176      0.5346
     33  NH1       78.0140   51.5620   44.3330 N.pl3 176  ARG176      0.1354
     34  NH2       76.2750   50.2200   45.0020 N.pl3 176  ARG176      0.1354
     35  N         79.8510   51.0900   51.4260 N.am  177  GLY177     -0.1955
     36  CA        80.4720   52.1610   52.1890 C.3   177  GLY177      0.1869
     37  C         81.0630   51.8140   53.5480 C.2   177  GLY177      0.2309
     38  O         81.8310   52.6090   54.1050 O.2   177  GLY177     -0.2863
     39  N         69.1510   47.7500   51.2480 N.3   199  ASP199     -0.1239
     40  CA        69.8160   47.0970   50.1340 C.3   199  ASP199      0.1674
     41  C         71.0280   46.3490   50.6610 C.2   199  ASP199      0.2266
     42  O         71.7330   45.6740   49.8970 O.2   199  ASP199     -0.2867
     43  CB        70.2620   48.1230   49.0920 C.3   199  ASP199      0.1410
     44  CG        69.3660   48.1370   47.8690 C.2   199  ASP199      0.3668
     45  OD1       68.1280   48.2180   48.0320 O.co2 199  ASP199     -0.2456
     46  OD2       69.9090   48.0720   46.7500 O.co2 199  ASP199     -0.2456
     47  N         63.4470   46.8150   46.2240 N.3   222  VAL222     -0.1245
     48  CA        62.7350   46.8160   44.9530 C.3   222  VAL222      0.1561
     49  C         63.7390   46.9670   43.8200 C.2   222  VAL222      0.2260
     50  O         64.8590   47.4250   44.0440 O.2   222  VAL222     -0.2867
     51  CB        61.7160   47.9810   44.8840 C.3   222  VAL222      0.0252
     52  CG1       60.7510   47.8930   46.0600 C.3   222  VAL222      0.0019
     53  CG2       62.4410   49.3250   44.8750 C.3   222  VAL222      0.0019
     54  N         66.0160   48.2400   40.8860 N.3   224  ALA224     -0.1231
     55  CA        66.6070   49.5560   40.6880 C.3   224  ALA224      0.1694
     56  C         67.8390   49.4910   39.8050 C.2   224  ALA224      0.2592
     57  O         68.5940   48.5200   39.8330 O.2   224  ALA224     -0.2718
     58  CB        66.9740   50.1730   42.0360 C.3   224  ALA224      0.0304
     59  N         68.0490   50.5480   39.0350 N.am  225  ALA225     -0.1966
     60  CA        69.1850   50.6050   38.1360 C.3   225  ALA225      0.1728
     61  C         70.3780   51.2950   38.7790 C.2   225  ALA225      0.2616
     62  O         70.2280   52.0560   39.7340 O.2   225  ALA225     -0.2715
     63  CB        68.7870   51.3400   36.8630 C.3   225  ALA225      0.0334
     64  N         71.5640   51.0000   38.2600 N.am  226  GLU226     -0.1963
     65  CA        72.7930   51.6270   38.7250 C.3   226  GLU226      0.1733
     66  C         73.3660   52.2830   37.4640 C.2   226  GLU226      0.2616
     67  O         72.9230   51.9810   36.3500 O.2   226  GLU226     -0.2715
     68  CB        73.7640   50.5840   39.2970 C.3   226  GLU226      0.0429
     69  CG        74.4600   49.6930   38.2770 C.3   226  GLU226      0.1163
     70  CD        75.4370   48.7290   38.9280 C.2   226  GLU226      0.3649
     71  OE1       76.2790   48.1490   38.2110 O.co2 226  GLU226     -0.2457
     72  OE2       75.3640   48.5470   40.1640 O.co2 226  GLU226     -0.2457
     73  N         74.3440   53.1670   37.6160 N.am  227  HIS227     -0.1973
     74  CA        74.8930   53.8450   36.4460 C.3   227  HIS227      0.1656
     75  C         75.3600   52.9530   35.3030 C.2   227  HIS227      0.2291
     76  O         75.1060   53.2700   34.1390 O.2   227  HIS227     -0.2864
     77  CB        76.0200   54.8010   36.8540 C.3   227  HIS227      0.0771
     78  CG        75.5290   56.0270   37.5570 C.ar  227  HIS227      0.0820
     79  ND1       75.4560   56.1220   38.9300 N.ar  227  HIS227     -0.2267
     80  CD2       75.0210   57.1850   37.0730 C.ar  227  HIS227      0.1154
     81  CE1       74.9250   57.2850   39.2620 C.ar  227  HIS227      0.1986
     82  NE2       74.6510   57.9480   38.1530 N.ar  227  HIS227     -0.2212
     83  N         63.2190   51.8310   40.4930 N.3   255  SER255     -0.1217
     84  CA        64.0660   53.0070   40.6410 C.3   255  SER255      0.1889
     85  C         65.0600   53.0770   39.4880 C.2   255  SER255      0.2288
     86  O         65.7400   52.0900   39.1810 O.2   255  SER255     -0.2866
     87  CB        64.8190   52.9500   41.9790 C.3   255  SER255      0.2089
     88  OG        65.7530   54.0120   42.0910 O.3   255  SER255     -0.2183
     89  N         65.6870   58.6450   40.3860 N.3   291  ARG291     -0.1245
     90  CA        66.7650   58.8270   41.3380 C.3   291  ARG291      0.1563
     91  C         67.9520   59.6660   40.8850 C.2   291  ARG291      0.2260
     92  O         68.7620   59.2300   40.0690 O.2   291  ARG291     -0.2867
     93  CB        67.2680   57.4560   41.8070 C.3   291  ARG291      0.0307
     94  CG        68.6590   57.4690   42.4380 C.3   291  ARG291      0.0489
     95  CD        68.9720   56.1670   43.1780 C.3   291  ARG291      0.2205
     96  NE        70.2650   55.6000   42.8040 N.pl3 291  ARG291     -0.0865
     97  CZ        70.4390   54.7380   41.8080 C.cat 291  ARG291      0.5346
     98  NH1       69.3940   54.3420   41.0800 N.pl3 291  ARG291      0.1354
     99  NH2       71.6480   54.2590   41.5460 N.pl3 291  ARG291      0.1354
    100  N         71.5570   61.5580   41.5510 N.3   293  ASP293     -0.1239
    101  CA        72.6840   61.0520   42.3280 C.3   293  ASP293      0.1674
    102  C         73.8990   61.9770   42.2740 C.2   293  ASP293      0.2266
    103  O         75.0370   61.5150   42.3690 O.2   293  ASP293     -0.2867
    104  CB        73.0810   59.6640   41.8030 C.3   293  ASP293      0.1410
    105  CG        73.9950   58.9130   42.7560 C.2   293  ASP293      0.3668
    106  OD1       75.0480   58.4090   42.3050 O.co2 293  ASP293     -0.2456
    107  OD2       73.6510   58.8200   43.9550 O.co2 293  ASP293     -0.2456
    108  N         69.2230   59.5360   46.8380 N.3   333  GLY333     -0.1210
    109  CA        70.1560   58.6120   47.4630 C.3   333  GLY333      0.1956
    110  C         71.6000   59.0600   47.3910 C.2   333  GLY333      0.2612
    111  O         72.5070   58.2360   47.2850 O.2   333  GLY333     -0.2717
    112  N         71.8090   60.3710   47.4480 N.am  334  ASP334     -0.1959
    113  CA        73.1510   60.9320   47.3970 C.3   334  ASP334      0.1840
    114  C         73.3390   62.0670   48.4050 C.2   334  ASP334      0.2622
    115  O         72.4670   62.9200   48.5510 O.2   334  ASP334     -0.2715
    116  CB        73.4520   61.4620   46.0000 C.3   334  ASP334      0.1450
    117  CG        74.8760   61.9550   45.8690 C.2   334  ASP334      0.3671
    118  OD1       75.7960   61.1130   45.8910 O.co2 334  ASP334     -0.2456
    119  OD2       75.0770   63.1810   45.7560 O.co2 334  ASP334     -0.2456
    120  N         74.4820   62.0670   49.0880 N.am  335  GLY335     -0.1954
    121  CA        74.7860   63.1100   50.0570 C.3   335  GLY335      0.1869
    122  C         73.8200   63.2340   51.2210 C.2   335  GLY335      0.2309
    123  O         73.7140   64.2920   51.8410 O.2   335  GLY335     -0.2863
    124  N         70.5210   56.4470   52.0060 N.3   362  SER362     -0.1202
    125  CA        71.7400   56.8730   52.6790 C.3   362  SER362      0.2020
    126  C         72.6510   55.6710   52.9270 C.2   362  SER362      0.2619
    127  O         72.2100   54.6290   53.4220 O.2   362  SER362     -0.2717
    128  CB        71.3890   57.5630   54.0050 C.3   362  SER362      0.2103
    129  OG        72.5460   58.0630   54.6600 O.3   362  SER362     -0.2182
    130  N         73.9220   55.8200   52.5700 N.am  363  GLY363     -0.1942
    131  CA        74.8720   54.7430   52.7530 C.3   363  GLY363      0.2014
    132  C         75.9340   55.0590   53.7920 C.2   363  GLY363      0.2639
    133  O         75.7590   54.7670   54.9770 O.2   363  GLY363     -0.2714
    134  N         77.0380   55.6520   53.3450 N.am  364  GLY364     -0.1939
    135  CA        78.1140   55.9960   54.2550 C.3   364  GLY364      0.2014
    136  C         77.6560   56.8340   55.4400 C.2   364  GLY364      0.2639
    137  O         78.0950   56.6220   56.5690 O.2   364  GLY364     -0.2714
    138  N         76.7660   57.7870   55.1960 N.am  365  GLY365     -0.1954
    139  CA        76.2980   58.6240   56.2850 C.3   365  GLY365      0.1869
    140  C         75.4280   57.8610   57.2680 C.2   365  GLY365      0.2309
    141  O         75.2960   58.2480   58.4290 O.2   365  GLY365     -0.2863
@<TRIPOS>BOND
     1    76    75    2
     2    75    74    1
     3    67    66    2
     4    74    77    1
     5    74    73    1
     6    77    78    1
     7    63    60    1
     8    80    78   ar
     9    80    82   ar
    10    66    73   am
    11    66    65    1
    12    78    79   ar
    13    60    61    1
    14    60    59    1
    15    82    81   ar
    16    71    70   ar
    17    64    65    1
    18    64    61   am
    19    69    70    1
    20    69    68    1
    21    65    68    1
    22    61    62    2
    23    70    72   ar
    24    79    81   ar
    25    59    56   am
    26    86    85    2
    27    85    84    1
    28    56    57    2
    29    56    55    1
    30    92    91    2
    31    89    90    1
    32    83    84    1
    33    84    87    1
    34    55    54    1
    35    55    58    1
    36    91    90    1
    37    98    97    1
    38    90    93    1
    39    99    97    1
    40   100   101    1
    41   104   101    1
    42   104   105    1
    43    93    94    1
    44    97    96    2
    45    87    88    1
    46   102   101    1
    47   102   103    2
    48   106   105   ar
    49    94    95    1
    50   105   107   ar
    51    96    95    1
    52    49    50    2
    53    49    48    1
    54    33    32    1
    55    53    51    1
    56    51    48    1
    57    51    52    1
    58    48    47    1
    59    34    32    1
    60    32    31    2
    61   119   117   ar
    62   117   118   ar
    63   117   116    1
    64   116   113    1
    65    31    30    1
    66    46    44   ar
    67   108   109    1
    68    30    29    1
    69   111   110    2
    70   110   112   am
    71   110   109    1
    72     9    11   ar
    73     9     7   ar
    74   113   112    1
    75   113   114    1
    76    11    10   ar
    77    44    45   ar
    78    44    43    1
    79     7     6   ar
    80    10     8   ar
    81    29    28    1
    82   114   115    2
    83   114   120   am
    84    28    25    1
    85     6     8   ar
    86     6     5    1
    87   120   121    1
    88    43    40    1
    89    42    41    2
    90     5     2    1
    91    25    24    1
    92    25    26    1
    93   121   122    1
    94    40    41    1
    95    40    39    1
    96     4     3    2
    97    24    14   am
    98    26    27    2
    99    26    35   am
   100     2     3    1
   101     2     1    1
   102    19    21   ar
   103    19    17   ar
   104    16    17    1
   105    16    13    1
   106   122   123    2
   107    21    22   ar
   108    35    36    1
   109    17    18   ar
   110    14    13    1
   111    14    15    2
   112    22    23    1
   113    22    20   ar
   114   124   125    1
   115    13    12    1
   116    18    20   ar
   117    36    37    1
   118   130   131    1
   119   130   126   am
   120   125   126    1
   121   125   128    1
   122   131   132    1
   123   126   127    2
   124   134   132   am
   125   134   135    1
   126    37    38    2
   127   132   133    2
   128   128   129    1
   129   135   136    1
   130   138   136   am
   131   138   139    1
   132   136   137    2
   133   139   140    1
   134   140   141    2
