@<TRIPOS>MOLECULE
tmp/2gviA00.pdb
 93 93 0 0 0
SMALL
GASTEIGER

@<TRIPOS>ATOM
      1  N         31.1230   29.4950   -7.1040 N.3    17  HIS17      -0.1241
      2  CA        29.7440   29.8420   -7.4290 C.3    17  HIS17       0.1621
      3  C         28.8880   29.9570   -6.1730 C.2    17  HIS17       0.2264
      4  O         29.3480   29.6420   -5.0650 O.2    17  HIS17      -0.2867
      5  CB        29.1480   28.7850   -8.3910 C.3    17  HIS17       0.0745
      6  CG        29.1280   27.3830   -7.8470 C.ar   17  HIS17       0.0817
      7  ND1       29.8710   26.3640   -8.4010 N.ar   17  HIS17      -0.2268
      8  CD2       28.4400   26.8240   -6.8190 C.ar   17  HIS17       0.1154
      9  CE1       29.6470   25.2410   -7.7380 C.ar   17  HIS17       0.1986
     10  NE2       28.7940   25.4930   -6.7630 N.ar   17  HIS17      -0.2212
     11  N         25.5110   28.6440   -4.2380 N.3    19  CYS19      -0.1221
     12  CA        24.5940   27.5140   -4.0970 C.3    19  CYS19       0.1794
     13  C         24.2200   27.4830   -2.6160 C.2    19  CYS19       0.2443
     14  O         24.8620   28.1650   -1.8310 O.2    19  CYS19      -0.2733
     15  CB        25.2470   26.2010   -4.5310 C.3    19  CYS19       0.0970
     16  SG        26.6480   25.7030   -3.5280 S.3    19  CYS19      -0.0800
     17  N         23.1390   26.7790   -2.2440 N.am   20  PRO20      -0.2718
     18  CA        22.7750   26.7420   -0.8250 C.3    20  PRO20       0.1535
     19  C         23.6880   25.9310    0.0980 C.2    20  PRO20       0.2598
     20  O         23.8280   26.2850    1.2560 O.2    20  PRO20      -0.2715
     21  CB        21.3740   26.0970   -0.8360 C.3    20  PRO20       0.0310
     22  CG        20.9040   26.1680   -2.2360 C.3    20  PRO20       0.0237
     23  CD        22.1380   26.0780   -3.0660 C.3    20  PRO20       0.0939
     24  N         24.3270   24.8900   -0.4190 N.am   21  TYR21      -0.1974
     25  CA        25.0620   23.9540    0.4260 C.3    21  TYR21       0.1639
     26  C         26.4030   24.3730    0.9730 C.2    21  TYR21       0.2290
     27  O         26.7340   23.9950    2.0990 O.2    21  TYR21      -0.2864
     28  CB        25.1640   22.6030   -0.2630 C.3    21  TYR21       0.0560
     29  CG        23.8480   21.8650   -0.2770 C.ar   21  TYR21      -0.0198
     30  CD1       23.4610   21.0780    0.7930 C.ar   21  TYR21      -0.0009
     31  CD2       22.9970   21.9460   -1.3690 C.ar   21  TYR21      -0.0009
     32  CE1       22.2570   20.3770    0.7700 C.ar   21  TYR21       0.0417
     33  CE2       21.7890   21.2660   -1.4000 C.ar   21  TYR21       0.0417
     34  CZ        21.4260   20.4780   -0.3340 C.ar   21  TYR21       0.1957
     35  OH        20.2360   19.7920   -0.3720 O.3    21  TYR21      -0.2866
     36  N         25.5520   17.4690   -3.5660 N.3    54  ASN54      -0.1225
     37  CA        25.6190   18.4980   -2.5190 C.3    54  ASN54       0.1785
     38  C         26.8760   18.4580   -1.6420 C.2    54  ASN54       0.2598
     39  O         26.8830   19.0080   -0.5410 O.2    54  ASN54      -0.2718
     40  CB        24.3540   18.5000   -1.6560 C.3    54  ASN54       0.1169
     41  CG        23.0920   18.2880   -2.4740 C.2    54  ASN54       0.2627
     42  OD1       22.8460   18.9890   -3.4450 O.2    54  ASN54      -0.2716
     43  ND2       22.3050   17.3070   -2.0910 N.am   54  ASN54      -0.0877
     44  N         27.9460   17.8550   -2.1640 N.am   55  GLY55      -0.1942
     45  CA        29.2370   17.7830   -1.4720 C.3    55  GLY55       0.2014
     46  C         29.8840   19.1440   -1.2510 C.2    55  GLY55       0.2639
     47  O         30.8790   19.2420   -0.5390 O.2    55  GLY55      -0.2714
     48  N         29.3740   20.1740   -1.9370 N.am   56  CYS56      -0.1967
     49  CA        29.7180   21.5860   -1.7130 C.3    56  CYS56       0.1712
     50  C         29.6530   21.9620   -0.2160 C.2    56  CYS56       0.2296
     51  O         30.3560   22.8630    0.2200 O.2    56  CYS56      -0.2864
     52  CB        28.7450   22.4500   -2.5050 C.3    56  CYS56       0.0983
     53  SG        28.7110   22.0330   -4.2960 S.3    56  CYS56      -0.0798
     54  N         15.8740   27.1580   -7.7080 N.3   112  PHE112     -0.1227
     55  CA        17.2720   26.7550   -7.8070 C.3   112  PHE112      0.1736
     56  C         17.4090   25.2590   -8.0970 C.2   112  PHE112      0.2595
     57  O         18.1440   24.8600   -9.0100 O.2   112  PHE112     -0.2718
     58  CB        18.0360   27.0930   -6.5150 C.3   112  PHE112      0.0547
     59  CG        19.5230   26.8780   -6.6280 C.ar  112  PHE112     -0.0202
     60  CD1       20.3380   27.8820   -7.1190 C.ar  112  PHE112     -0.0042
     61  CD2       20.0990   25.6620   -6.2770 C.ar  112  PHE112     -0.0042
     62  CE1       21.7060   27.6840   -7.2430 C.ar  112  PHE112     -0.0003
     63  CE2       21.4600   25.4530   -6.4150 C.ar  112  PHE112     -0.0003
     64  CZ        22.2600   26.4650   -6.8920 C.ar  112  PHE112     -0.0000
     65  N         16.7090   24.4360   -7.3190 N.am  113  PHE113     -0.1976
     66  CA        16.7730   22.9940   -7.5170 C.3   113  PHE113      0.1639
     67  C         16.1630   22.5070   -8.8350 C.2   113  PHE113      0.2290
     68  O         16.6200   21.4930   -9.3610 O.2   113  PHE113     -0.2864
     69  CB        16.1910   22.2320   -6.3150 C.3   113  PHE113      0.0560
     70  CG        16.9320   22.4760   -5.0110 C.ar  113  PHE113     -0.0200
     71  CD1       18.3340   22.4370   -4.9480 C.ar  113  PHE113     -0.0042
     72  CD2       16.2230   22.6940   -3.8340 C.ar  113  PHE113     -0.0042
     73  CE1       19.0120   22.6530   -3.7420 C.ar  113  PHE113     -0.0003
     74  CE2       16.8930   22.8880   -2.6180 C.ar  113  PHE113     -0.0003
     75  CZ        18.2890   22.8800   -2.5760 C.ar  113  PHE113     -0.0000
     76  N         18.9460   22.9970  -11.2910 N.3   116  ARG116     -0.1245
     77  CA        19.9300   21.9300  -11.1050 C.3   116  ARG116      0.1563
     78  C         19.4590   20.5750  -11.6360 C.2   116  ARG116      0.2260
     79  O         20.2570   19.8440  -12.2200 O.2   116  ARG116     -0.2867
     80  CB        20.3300   21.8030   -9.6320 C.3   116  ARG116      0.0307
     81  CG        21.0600   23.0100   -9.0560 C.3   116  ARG116      0.0489
     82  CD        22.4550   23.2340   -9.6380 C.3   116  ARG116      0.2205
     83  NE        23.4230   22.1610   -9.3480 N.pl3 116  ARG116     -0.0865
     84  CZ        23.9240   21.2550  -10.2040 C.cat 116  ARG116      0.5346
     85  NH1       23.5690   21.1730  -11.4830 N.pl3 116  ARG116      0.1354
     86  NH2       24.8130   20.3730   -9.7520 N.pl3 116  ARG116      0.1354
     87  N         25.4720   25.8890  -11.4090 N.3   122  PRO122     -0.2116
     88  CA        25.2030   27.0890  -10.5940 C.3   122  PRO122      0.1372
     89  C         25.5740   28.4330  -11.2100 C.2   122  PRO122      0.2244
     90  O         24.8150   29.3920  -11.0760 O.2   122  PRO122     -0.2868
     91  CB        26.0500   26.8540   -9.3420 C.3   122  PRO122      0.0268
     92  CG        26.0830   25.4110   -9.1960 C.3   122  PRO122      0.0207
     93  CD        26.1280   24.8480  -10.5890 C.3   122  PRO122      0.0892
@<TRIPOS>BOND
     1    79    78    2
     2    78    77    1
     3    85    84    1
     4    87    88    1
     5    87    93    1
     6    76    77    1
     7    89    90    2
     8    89    88    1
     9    77    80    1
    10    88    91    1
    11    93    92    1
    12    84    86    1
    13    84    83    2
    14    82    83    1
    15    82    81    1
    16    80    81    1
    17    68    67    2
    18    91    92    1
    19    57    56    2
    20    67    66    1
    21     7     6   ar
    22     7     9   ar
    23     5     6    1
    24     5     2    1
    25    56    55    1
    26    56    65   am
    27     6     8   ar
    28    55    54    1
    29    55    58    1
    30     9    10   ar
    31    66    65    1
    32    66    69    1
    33     2     1    1
    34     2     3    1
    35    62    60   ar
    36    62    64   ar
    37    60    59   ar
    38    64    63   ar
    39     8    10   ar
    40    59    58    1
    41    59    61   ar
    42    63    61   ar
    43    69    70    1
    44     3     4    2
    45    70    71   ar
    46    70    72   ar
    47    71    73   ar
    48    15    12    1
    49    15    16    1
    50    53    52    1
    51    11    12    1
    52    12    13    1
    53    72    74   ar
    54    73    75   ar
    55    36    37    1
    56    42    41    2
    57    23    17    1
    58    23    22    1
    59    74    75   ar
    60    13    17   am
    61    13    14    2
    62    37    40    1
    63    37    38    1
    64    52    49    1
    65    41    43   am
    66    41    40    1
    67    17    18    1
    68    22    21    1
    69    44    38   am
    70    44    45    1
    71    48    49    1
    72    48    46   am
    73    49    50    1
    74    38    39    2
    75    45    46    1
    76    33    31   ar
    77    33    34   ar
    78    31    29   ar
    79    46    47    2
    80    21    18    1
    81    18    19    1
    82    24    19   am
    83    24    25    1
    84    35    34    1
    85    34    32   ar
    86    29    28    1
    87    29    30   ar
    88    28    25    1
    89    50    51    2
    90    19    20    2
    91    25    26    1
    92    32    30   ar
    93    26    27    2
