@<TRIPOS>MOLECULE
tmp/2gvnH00.pdb
 81 77 0 0 0
SMALL
GASTEIGER

@<TRIPOS>ATOM
      1  N         35.5820   24.2770   88.9460 N.3    12  GLY12      -0.1210
      2  CA        35.5850   23.4600   90.1580 C.3    12  GLY12       0.1956
      3  C         36.4790   23.9840   91.2660 C.2    12  GLY12       0.2612
      4  O         37.1840   24.9790   91.0910 O.2    12  GLY12      -0.2717
      5  N         36.4540   23.2960   92.4090 N.am   13  THR13      -0.1952
      6  CA        37.2740   23.6610   93.5710 C.3    13  THR13       0.1897
      7  C         38.7540   23.3130   93.3320 C.2    13  THR13       0.2313
      8  O         39.6460   23.8450   94.0030 O.2    13  THR13      -0.2863
      9  CB        36.7220   23.0150   94.8790 C.3    13  THR13       0.1794
     10  OG1       35.3890   23.4800   95.1050 O.3    13  THR13      -0.2208
     11  CG2       37.5490   23.3870   96.0790 C.3    13  THR13       0.0378
     12  N         31.4010   26.4720   88.4620 N.3    59  GLY59      -0.1210
     13  CA        31.2760   25.4290   89.4650 C.3    59  GLY59       0.1956
     14  C         30.4160   24.3430   88.8550 C.2    59  GLY59       0.2613
     15  O         29.4810   24.6430   88.1080 O.2    59  GLY59      -0.2717
     16  N         30.7360   23.0820   89.1440 N.am   60  SER60      -0.1938
     17  CA        30.0010   21.9540   88.5600 C.3    60  SER60       0.2055
     18  C         28.5200   21.9290   88.9330 C.2    60  SER60       0.2642
     19  O         27.7170   21.2980   88.2500 O.2    60  SER60      -0.2714
     20  CB        30.6690   20.6190   88.8780 C.3    60  SER60       0.2130
     21  OG        30.5140   20.2710   90.2360 O.3    60  SER60      -0.2179
     22  N         28.1620   22.6490   89.9960 N.am   61  GLU61      -0.1976
     23  CA        26.7640   22.7890   90.3960 C.3    61  GLU61       0.1602
     24  C         25.9890   23.5690   89.3190 C.2    61  GLU61       0.2287
     25  O         24.7750   23.4300   89.1910 O.2    61  GLU61      -0.2864
     26  CB        26.6410   23.4750   91.7710 C.3    61  GLU61       0.0415
     27  CG        27.1440   24.9350   91.8460 C.3    61  GLU61       0.1163
     28  CD        28.6530   25.0630   92.0550 C.2    61  GLU61       0.3649
     29  OE1       29.1220   26.2050   92.2450 O.co2  61  GLU61      -0.2457
     30  OE2       29.3630   24.0350   92.0610 O.co2  61  GLU61      -0.2457
     31  N         37.3620   19.2710   86.6170 N.3    91  HIS91      -0.1226
     32  CA        35.9330   19.4790   86.7930 C.3    91  HIS91       0.1752
     33  C         35.6270   19.5890   88.2860 C.2    91  HIS91       0.2597
     34  O         36.4730   19.2740   89.1190 O.2    91  HIS91      -0.2718
     35  CB        35.2060   18.2610   86.1930 C.3    91  HIS91       0.0759
     36  CG        33.7330   18.4480   85.9990 C.ar   91  HIS91       0.0818
     37  ND1       32.8040   18.0530   86.9360 N.ar   91  HIS91      -0.2268
     38  CD2       33.0250   18.8920   84.9330 C.ar   91  HIS91       0.1154
     39  CE1       31.5890   18.2820   86.4730 C.ar   91  HIS91       0.1986
     40  NE2       31.6950   18.7980   85.2630 N.ar   91  HIS91      -0.2212
     41  N         34.4390   20.0850   88.6210 N.am   92  GLY92      -0.1942
     42  CA        34.0040   20.1500   90.0130 C.3    92  GLY92       0.2014
     43  C         33.5350   18.7840   90.4880 C.2    92  GLY92       0.2640
     44  O         33.3110   17.8840   89.6770 O.2    92  GLY92      -0.2714
     45  N         33.3740   18.6270   91.8000 N.am   93  THR93      -0.1936
     46  CA        32.9650   17.3380   92.3670 C.3    93  THR93       0.2028
     47  C         31.4520   17.1860   92.4940 C.2    93  THR93       0.2642
     48  O         30.9370   16.0660   92.4780 O.2    93  THR93      -0.2714
     49  CB        33.5930   17.0890   93.7600 C.3    93  THR93       0.1808
     50  OG1       33.0620   18.0240   94.7030 O.3    93  THR93      -0.2208
     51  CG2       35.0960   17.2170   93.7120 C.3    93  THR93       0.0379
     52  N         30.7490   18.3150   92.6120 N.am   94  ASP94      -0.1971
     53  CA        29.2950   18.3220   92.8370 C.3    94  ASP94       0.1709
     54  C         28.4510   17.6160   91.7820 C.2    94  ASP94       0.2293
     55  O         27.4190   17.0260   92.1070 O.2    94  ASP94      -0.2864
     56  CB        28.7810   19.7360   93.0980 C.3    94  ASP94       0.1436
     57  CG        29.3920   20.3540   94.3390 C.2    94  ASP94       0.3671
     58  OD1       29.9560   19.6060   95.1660 O.co2  94  ASP94      -0.2456
     59  OD2       29.3290   21.5900   94.4780 O.co2  94  ASP94      -0.2456
     60  N         38.8980   18.0360   92.8690 N.3   118  ALA118     -0.1231
     61  CA        39.4830   18.2010   94.1920 C.3   118  ALA118      0.1694
     62  C         38.4350   18.6630   95.1820 C.2   118  ALA118      0.2591
     63  O         37.6180   19.5350   94.8750 O.2   118  ALA118     -0.2718
     64  CB        40.6300   19.1780   94.1510 C.3   118  ALA118      0.0304
     65  N         38.4650   18.0780   96.3750 N.am  119  MET119     -0.1979
     66  CA        37.5240   18.4310   97.4300 C.3   119  MET119      0.1605
     67  C         37.9800   19.6590   98.2120 C.2   119  MET119      0.2287
     68  O         37.1620   20.3780   98.7830 O.2   119  MET119     -0.2864
     69  CB        37.3030   17.2440   98.3640 C.3   119  MET119      0.0413
     70  CG        36.5420   16.0960   97.7160 C.3   119  MET119      0.0598
     71  SD        34.8420   16.5530   97.3140 S.3   119  MET119     -0.1393
     72  CE        34.2040   16.8960   98.9410 C.3   119  MET119      0.0692
     73  N         29.9150   10.7350   93.9820 N.3   166  LYS166     -0.1245
     74  CA        30.2610   11.4170   95.2180 C.3   166  LYS166      0.1561
     75  C         29.3330   10.8510   96.3000 C.2   166  LYS166      0.2260
     76  O         28.1350   11.1060   96.2830 O.2   166  LYS166     -0.2867
     77  CB        30.0540   12.9310   95.0450 C.3   166  LYS166      0.0271
     78  CG        30.6280   13.7770   96.1560 C.3   166  LYS166      0.0035
     79  CD        30.5750   15.2580   95.8290 C.3   166  LYS166      0.0206
     80  CE        31.1580   16.0760   96.9670 C.3   166  LYS166      0.1093
     81  NZ        31.2690   17.5270   96.6380 N.3   166  LYS166     -0.1314
@<TRIPOS>BOND
     1    38    40   ar
     2    38    36   ar
     3    40    39   ar
     4    36    35    1
     5    36    37   ar
     6    35    32    1
     7    39    37   ar
     8    31    32    1
     9    32    33    1
    10    15    14    2
    11    19    18    2
    12    33    41   am
    13    33    34    2
    14    12    13    1
    15    17    20    1
    16    17    18    1
    17    17    16    1
    18    41    42    1
    19    14    16   am
    20    14    13    1
    21    20    21    1
    22    18    22   am
    23     1     2    1
    24    25    24    2
    25    24    23    1
    26    44    43    2
    27    22    23    1
    28    42    43    1
    29     2     3    1
    30    23    26    1
    31    43    45   am
    32     4     3    2
    33     3     5   am
    34    26    27    1
    35    54    55    2
    36    54    53    1
    37    45    46    1
    38    27    28    1
    39    28    30   ar
    40    28    29   ar
    41    46    47    1
    42    46    49    1
    43     5     6    1
    44    48    47    2
    45    47    52   am
    46    52    53    1
    47    53    56    1
    48    60    61    1
    49    56    57    1
    50     7     6    1
    51     7     8    2
    52     6     9    1
    53    51    49    1
    54    49    50    1
    55    73    74    1
    56    64    61    1
    57    61    62    1
    58    57    59   ar
    59    57    58   ar
    60    63    62    2
    61     9    10    1
    62     9    11    1
    63    77    74    1
    64    77    78    1
    65    62    65   am
    66    74    75    1
    67    79    78    1
    68    79    80    1
    69    76    75    2
    70    65    66    1
    71    81    80    1
    72    71    70    1
    73    71    72    1
    74    66    67    1
    75    66    69    1
    76    70    69    1
    77    67    68    2
