@<TRIPOS>MOLECULE
tmp/2gvqD01.pdb
 99 92 0 0 0
SMALL
GASTEIGER

@<TRIPOS>ATOM
      1  N         15.4010  -41.6590   51.5670 N.3    62  MET62      -0.1245
      2  CA        16.4750  -41.6670   52.5500 C.3    62  MET62       0.1570
      3  C         17.0060  -43.0620   52.8600 C.2    62  MET62       0.2261
      4  O         18.2030  -43.2360   53.0760 O.2    62  MET62      -0.2867
      5  CB        16.0210  -40.9770   53.8280 C.3    62  MET62       0.0387
      6  CG        16.2510  -39.4950   53.7890 C.3    62  MET62       0.0595
      7  SD        15.5830  -38.7540   55.2540 S.3    62  MET62      -0.1393
      8  CE        13.8790  -38.9040   54.8810 C.3    62  MET62       0.0692
      9  N         18.9780  -44.9730   66.6990 N.3   107  HIS107     -0.1241
     10  CA        19.2070  -43.9970   65.6400 C.3   107  HIS107      0.1621
     11  C         19.0390  -42.6280   66.2860 C.2   107  HIS107      0.2264
     12  O         18.0070  -42.3340   66.8830 O.2   107  HIS107     -0.2867
     13  CB        18.1620  -44.1870   64.5240 C.3   107  HIS107      0.0745
     14  CG        18.4470  -43.4180   63.2660 C.ar  107  HIS107      0.0817
     15  ND1       17.4580  -43.0560   62.3760 N.ar  107  HIS107     -0.2268
     16  CD2       19.6100  -42.9560   62.7420 C.ar  107  HIS107      0.1154
     17  CE1       17.9970  -42.4010   61.3630 C.ar  107  HIS107      0.1986
     18  NE2       19.3020  -42.3270   61.5600 N.ar  107  HIS107     -0.2212
     19  N         20.8080  -38.2320   66.6990 N.3   109  ASN109     -0.1240
     20  CA        21.5610  -37.1220   66.1410 C.3   109  ASN109      0.1653
     21  C         21.9470  -36.1300   67.2440 C.2   109  ASN109      0.2266
     22  O         21.6080  -36.3230   68.4130 O.2   109  ASN109     -0.2867
     23  CB        20.6810  -36.4190   65.0970 C.3   109  ASN109      0.1155
     24  CG        21.4820  -35.7660   63.9880 C.2   109  ASN109      0.2627
     25  OD1       22.6560  -35.4080   64.1590 O.2   109  ASN109     -0.2716
     26  ND2       20.8410  -35.5920   62.8370 N.am  109  ASN109     -0.0877
     27  N         23.0430  -40.4320   62.7730 N.3   150  ALA150     -0.1231
     28  CA        22.3710  -40.0140   61.5330 C.3   150  ALA150      0.1694
     29  C         23.3160  -39.3530   60.5280 C.2   150  ALA150      0.2591
     30  O         23.3770  -39.7460   59.3640 O.2   150  ALA150     -0.2718
     31  CB        21.2180  -39.0670   61.8550 C.3   150  ALA150      0.0304
     32  N         24.0600  -38.3580   60.9830 N.am  151  GLN151     -0.1979
     33  CA        24.9830  -37.6500   60.1130 C.3   151  GLN151      0.1601
     34  C         26.0750  -38.5620   59.5630 C.2   151  GLN151      0.2287
     35  O         26.7720  -38.2120   58.6080 O.2   151  GLN151     -0.2864
     36  CB        25.6030  -36.4790   60.8730 C.3   151  GLN151      0.0394
     37  CG        24.5620  -35.5640   61.5020 C.3   151  GLN151      0.0908
     38  CD        25.1720  -34.3500   62.1720 C.2   151  GLN151      0.2608
     39  OE1       24.4960  -33.6250   62.9150 O.2   151  GLN151     -0.2717
     40  NE2       26.4530  -34.1160   61.9130 N.am  151  GLN151     -0.0878
     41  N         23.7980  -41.3410   57.1350 N.3   154  HIS154     -0.1241
     42  CA        23.0400  -40.6640   56.0830 C.3   154  HIS154      0.1621
     43  C         23.9450  -39.5660   55.5520 C.2   154  HIS154      0.2264
     44  O         23.6070  -38.3930   55.6140 O.2   154  HIS154     -0.2867
     45  CB        21.7580  -40.0320   56.6370 C.3   154  HIS154      0.0745
     46  CG        20.7270  -41.0330   57.0610 C.ar  154  HIS154      0.0817
     47  ND1       20.0180  -41.8000   56.1610 N.ar  154  HIS154     -0.2268
     48  CD2       20.3090  -41.4130   58.2920 C.ar  154  HIS154      0.1154
     49  CE1       19.2110  -42.6110   56.8190 C.ar  154  HIS154      0.1986
     50  NE2       19.3680  -42.3970   58.1140 N.ar  154  HIS154     -0.2212
     51  N         22.6700  -36.6330   53.4700 N.3   157  MET157     -0.1245
     52  CA        21.8850  -35.5840   54.1150 C.3   157  MET157      0.1570
     53  C         22.6430  -34.2680   54.2760 C.2   157  MET157      0.2261
     54  O         22.0360  -33.2220   54.4940 O.2   157  MET157     -0.2867
     55  CB        21.3560  -36.0740   55.4620 C.3   157  MET157      0.0387
     56  CG        20.1600  -36.9990   55.3260 C.3   157  MET157      0.0595
     57  SD        18.7310  -36.1540   54.5700 S.3   157  MET157     -0.1393
     58  CE        18.0660  -35.2770   55.9930 C.3   157  MET157      0.0692
     59  N         18.4290  -26.3400   55.5420 N.3   164  ARG164     -0.1245
     60  CA        17.7360  -26.6060   56.7980 C.3   164  ARG164      0.1563
     61  C         18.2590  -25.6820   57.8860 C.2   164  ARG164      0.2260
     62  O         17.4980  -25.1320   58.6780 O.2   164  ARG164     -0.2867
     63  CB        17.9230  -28.0670   57.1960 C.3   164  ARG164      0.0307
     64  CG        17.3130  -29.0360   56.1950 C.3   164  ARG164      0.0489
     65  CD        16.5550  -30.1200   56.9120 C.3   164  ARG164      0.2205
     66  NE        17.4740  -31.1110   57.4370 N.pl3 164  ARG164     -0.0865
     67  CZ        17.3390  -31.7290   58.6040 C.cat 164  ARG164      0.5346
     68  NH1       16.3070  -31.4620   59.4040 N.pl3 164  ARG164      0.1354
     69  NH2       18.2540  -32.6200   58.9630 N.pl3 164  ARG164      0.1354
     70  N         11.9130  -33.1410   57.0070 N.3   173  PHE173     -0.1227
     71  CA        13.0450  -33.9260   57.4670 C.3   173  PHE173      0.1736
     72  C         13.0670  -34.1260   58.9840 C.2   173  PHE173      0.2595
     73  O         13.6110  -35.1150   59.4800 O.2   173  PHE173     -0.2718
     74  CB        14.3500  -33.3040   56.9910 C.3   173  PHE173      0.0547
     75  CG        14.6020  -33.4950   55.5290 C.ar  173  PHE173     -0.0202
     76  CD1       14.5530  -32.4210   54.6540 C.ar  173  PHE173     -0.0042
     77  CD2       14.8860  -34.7570   55.0250 C.ar  173  PHE173     -0.0042
     78  CE1       14.7880  -32.6040   53.2880 C.ar  173  PHE173     -0.0003
     79  CE2       15.1230  -34.9550   53.6570 C.ar  173  PHE173     -0.0003
     80  CZ        15.0740  -33.8760   52.7890 C.ar  173  PHE173     -0.0000
     81  N         12.4400  -33.2140   59.7180 N.am  174  ASN174     -0.1974
     82  CA        12.4040  -33.3210   61.1680 C.3   174  ASN174      0.1688
     83  C         11.4910  -34.4030   61.7440 C.2   174  ASN174      0.2292
     84  O         11.4180  -34.5620   62.9650 O.2   174  ASN174     -0.2864
     85  CB        12.0630  -31.9590   61.7620 C.3   174  ASN174      0.1181
     86  CG        13.1650  -30.9580   61.5230 C.2   174  ASN174      0.2629
     87  OD1       14.2660  -31.1050   62.0660 O.2   174  ASN174     -0.2716
     88  ND2       12.9000  -29.9530   60.6820 N.am  174  ASN174     -0.0877
     89  N         13.6110  -38.8080   60.7440 N.3   177  GLY177     -0.1225
     90  CA        14.6870  -39.4760   61.4650 C.3   177  GLY177      0.1811
     91  C         14.3220  -40.8460   62.0040 C.2   177  GLY177      0.2280
     92  O         15.0130  -41.8250   61.7160 O.2   177  GLY177     -0.2866
     93  N         13.8470  -43.8590   59.5280 N.3   180  THR180     -0.1218
     94  CA        14.9600  -44.1820   58.6450 C.3   180  THR180      0.1862
     95  C         16.1370  -44.8580   59.3210 C.2   180  THR180      0.2287
     96  O         17.2960  -44.5500   59.0150 O.2   180  THR180     -0.2866
     97  CB        15.4590  -42.9270   57.9270 C.3   180  THR180      0.1770
     98  OG1       15.7270  -41.9090   58.8930 O.3   180  THR180     -0.2211
     99  CG2       14.4100  -42.4260   56.9450 C.3   180  THR180      0.0375
@<TRIPOS>BOND
     1     1     2    1
     2     2     3    1
     3     2     5    1
     4    80    78   ar
     5    80    79   ar
     6     3     4    2
     7    78    76   ar
     8    51    52    1
     9    79    77   ar
    10     6     5    1
    11     6     7    1
    12    52    53    1
    13    52    55    1
    14    53    54    2
    15    57    56    1
    16    57    58    1
    17    76    75   ar
    18     8     7    1
    19    77    75   ar
    20    56    55    1
    21    75    74    1
    22    59    60    1
    23    43    44    2
    24    43    42    1
    25    42    45    1
    26    42    41    1
    27    47    49   ar
    28    47    46   ar
    29    64    65    1
    30    64    63    1
    31    45    46    1
    32    60    63    1
    33    60    61    1
    34    49    50   ar
    35    65    66    1
    36    99    97    1
    37    74    71    1
    38    70    71    1
    39    46    48   ar
    40    66    67    2
    41    71    72    1
    42    61    62    2
    43    97    94    1
    44    97    98    1
    45    50    48   ar
    46    67    69    1
    47    67    68    1
    48    35    34    2
    49    94    95    1
    50    94    93    1
    51    72    73    2
    52    72    81   am
    53    96    95    2
    54    30    29    2
    55    34    33    1
    56    81    82    1
    57    33    36    1
    58    33    32    1
    59    29    32   am
    60    29    28    1
    61    88    86   am
    62    89    90    1
    63    36    37    1
    64    82    83    1
    65    82    85    1
    66    17    18   ar
    67    17    15   ar
    68    90    91    1
    69    37    38    1
    70    86    85    1
    71    86    87    2
    72    28    31    1
    73    28    27    1
    74    18    16   ar
    75    92    91    2
    76    83    84    2
    77    40    38   am
    78    38    39    2
    79    15    14   ar
    80    16    14   ar
    81    26    24   am
    82    14    13    1
    83    24    25    2
    84    24    23    1
    85    13    10    1
    86    23    20    1
    87    10    11    1
    88    10     9    1
    89    20    19    1
    90    20    21    1
    91    11    12    2
    92    21    22    2
