@<TRIPOS>MOLECULE
tmp/2gvqD00.pdb
 88 85 0 0 0
SMALL
GASTEIGER

@<TRIPOS>ATOM
      1  N         13.2840  -43.6530   69.0610 N.3    78  ALA78      -0.1231
      2  CA        13.6400  -42.3040   68.6530 C.3    78  ALA78       0.1694
      3  C         12.3830  -41.4950   68.4000 C.2    78  ALA78       0.2593
      4  O         11.4580  -41.9630   67.7390 O.2    78  ALA78      -0.2718
      5  CB        14.4890  -42.3450   67.3910 C.3    78  ALA78       0.0304
      6  N         12.3510  -40.2840   68.9420 N.am   79  GLY79      -0.1942
      7  CA        11.2090  -39.4180   68.7420 C.3    79  GLY79       0.2014
      8  C         11.5080  -38.4920   67.5790 C.2    79  GLY79       0.2640
      9  O         12.5730  -38.5780   66.9730 O.2    79  GLY79      -0.2714
     10  N         10.5770  -37.6020   67.2680 N.am   80  THR80      -0.1936
     11  CA        10.7650  -36.6670   66.1710 C.3    80  THR80       0.2028
     12  C         11.4970  -35.4270   66.6620 C.2    80  THR80       0.2642
     13  O         12.1830  -34.7450   65.8940 O.2    80  THR80      -0.2714
     14  CB         9.4140  -36.2290   65.5820 C.3    80  THR80       0.1808
     15  OG1        8.6310  -35.6130   66.6100 O.3    80  THR80      -0.2208
     16  CG2        8.6590  -37.4320   65.0060 C.3    80  THR80       0.0379
     17  N         11.3560  -35.1470   67.9530 N.am   81  GLY81      -0.1954
     18  CA        11.9880  -33.9750   68.5210 C.3    81  GLY81       0.1869
     19  C         10.8970  -32.9770   68.8390 C.2    81  GLY81       0.2309
     20  O         10.2630  -33.0670   69.8860 O.2    81  GLY81      -0.2863
     21  N         18.9780  -44.9730   66.6990 N.3   107  HIS107     -0.1226
     22  CA        19.2070  -43.9970   65.6400 C.3   107  HIS107      0.1752
     23  C         19.0390  -42.6280   66.2860 C.2   107  HIS107      0.2597
     24  O         18.0070  -42.3340   66.8830 O.2   107  HIS107     -0.2718
     25  CB        18.1620  -44.1870   64.5240 C.3   107  HIS107      0.0759
     26  CG        18.4470  -43.4180   63.2660 C.ar  107  HIS107      0.0818
     27  ND1       17.4580  -43.0560   62.3760 N.ar  107  HIS107     -0.2268
     28  CD2       19.6100  -42.9560   62.7420 C.ar  107  HIS107      0.1154
     29  CE1       17.9970  -42.4010   61.3630 C.ar  107  HIS107      0.1986
     30  NE2       19.3020  -42.3270   61.5600 N.ar  107  HIS107     -0.2212
     31  N         20.0500  -41.7860   66.1680 N.am  108  GLY108     -0.1942
     32  CA        19.9490  -40.4760   66.7730 C.3   108  GLY108      0.2014
     33  C         20.8110  -39.4220   66.1130 C.2   108  GLY108      0.2638
     34  O         21.4790  -39.6750   65.1050 O.2   108  GLY108     -0.2714
     35  N         20.8080  -38.2320   66.6990 N.am  109  ASN109     -0.1972
     36  CA        21.5610  -37.1220   66.1410 C.3   109  ASN109      0.1688
     37  C         21.9470  -36.1300   67.2440 C.2   109  ASN109      0.2292
     38  O         21.6080  -36.3230   68.4130 O.2   109  ASN109     -0.2864
     39  CB        20.6810  -36.4190   65.0970 C.3   109  ASN109      0.1181
     40  CG        21.4820  -35.7660   63.9880 C.2   109  ASN109      0.2629
     41  OD1       22.6560  -35.4080   64.1590 O.2   109  ASN109     -0.2716
     42  ND2       20.8410  -35.5920   62.8370 N.am  109  ASN109     -0.0877
     43  N         23.0430  -40.4320   62.7730 N.3   150  ALA150     -0.1245
     44  CA        22.3710  -40.0140   61.5330 C.3   150  ALA150      0.1562
     45  C         23.3160  -39.3530   60.5280 C.2   150  ALA150      0.2260
     46  O         23.3770  -39.7460   59.3640 O.2   150  ALA150     -0.2867
     47  CB        21.2180  -39.0670   61.8550 C.3   150  ALA150      0.0290
     48  N         18.4290  -26.3400   55.5420 N.3   164  ARG164     -0.1245
     49  CA        17.7360  -26.6060   56.7980 C.3   164  ARG164      0.1563
     50  C         18.2590  -25.6820   57.8860 C.2   164  ARG164      0.2260
     51  O         17.4980  -25.1320   58.6780 O.2   164  ARG164     -0.2867
     52  CB        17.9230  -28.0670   57.1960 C.3   164  ARG164      0.0307
     53  CG        17.3130  -29.0360   56.1950 C.3   164  ARG164      0.0489
     54  CD        16.5550  -30.1200   56.9120 C.3   164  ARG164      0.2205
     55  NE        17.4740  -31.1110   57.4370 N.pl3 164  ARG164     -0.0865
     56  CZ        17.3390  -31.7290   58.6040 C.cat 164  ARG164      0.5346
     57  NH1       16.3070  -31.4620   59.4040 N.pl3 164  ARG164      0.1354
     58  NH2       18.2540  -32.6200   58.9630 N.pl3 164  ARG164      0.1354
     59  N         11.9130  -33.1410   57.0070 N.3   173  PHE173     -0.1227
     60  CA        13.0450  -33.9260   57.4670 C.3   173  PHE173      0.1736
     61  C         13.0670  -34.1260   58.9840 C.2   173  PHE173      0.2595
     62  O         13.6110  -35.1150   59.4800 O.2   173  PHE173     -0.2718
     63  CB        14.3500  -33.3040   56.9910 C.3   173  PHE173      0.0547
     64  CG        14.6020  -33.4950   55.5290 C.ar  173  PHE173     -0.0202
     65  CD1       14.5530  -32.4210   54.6540 C.ar  173  PHE173     -0.0042
     66  CD2       14.8860  -34.7570   55.0250 C.ar  173  PHE173     -0.0042
     67  CE1       14.7880  -32.6040   53.2880 C.ar  173  PHE173     -0.0003
     68  CE2       15.1230  -34.9550   53.6570 C.ar  173  PHE173     -0.0003
     69  CZ        15.0740  -33.8760   52.7890 C.ar  173  PHE173     -0.0000
     70  N         12.4400  -33.2140   59.7180 N.am  174  ASN174     -0.1974
     71  CA        12.4040  -33.3210   61.1680 C.3   174  ASN174      0.1688
     72  C         11.4910  -34.4030   61.7440 C.2   174  ASN174      0.2292
     73  O         11.4180  -34.5620   62.9650 O.2   174  ASN174     -0.2864
     74  CB        12.0630  -31.9590   61.7620 C.3   174  ASN174      0.1181
     75  CG        13.1650  -30.9580   61.5230 C.2   174  ASN174      0.2629
     76  OD1       14.2660  -31.1050   62.0660 O.2   174  ASN174     -0.2716
     77  ND2       12.9000  -29.9530   60.6820 N.am  174  ASN174     -0.0877
     78  N         13.6110  -38.8080   60.7440 N.3   177  GLY177     -0.1210
     79  CA        14.6870  -39.4760   61.4650 C.3   177  GLY177      0.1940
     80  C         14.3220  -40.8460   62.0040 C.2   177  GLY177      0.2453
     81  O         15.0130  -41.8250   61.7160 O.2   177  GLY177     -0.2732
     82  N         13.2460  -40.9570   62.7990 N.am  178  PRO178     -0.2728
     83  CA        12.8740  -42.2720   63.3290 C.3   178  PRO178      0.1401
     84  C         12.3430  -43.3170   62.3320 C.2   178  PRO178      0.2269
     85  O         12.2460  -44.5070   62.6530 O.2   178  PRO178     -0.2865
     86  CB        11.8690  -41.9360   64.4420 C.3   178  PRO178      0.0296
     87  CG        11.3750  -40.5720   64.1000 C.3   178  PRO178      0.0237
     88  CD        12.5870  -39.8770   63.5550 C.3   178  PRO178      0.0939
@<TRIPOS>BOND
     1    69    67   ar
     2    69    68   ar
     3    67    65   ar
     4    68    66   ar
     5    65    64   ar
     6    66    64   ar
     7    64    63    1
     8    48    49    1
     9    53    54    1
    10    53    52    1
    11    49    52    1
    12    49    50    1
    13    54    55    1
    14    63    60    1
    15    59    60    1
    16    55    56    2
    17    60    61    1
    18    50    51    2
    19    56    58    1
    20    56    57    1
    21    61    62    2
    22    61    70   am
    23    46    45    2
    24    70    71    1
    25    45    44    1
    26    77    75   am
    27    78    79    1
    28    71    72    1
    29    71    74    1
    30    29    30   ar
    31    29    27   ar
    32    79    80    1
    33    75    74    1
    34    75    76    2
    35    44    47    1
    36    44    43    1
    37    30    28   ar
    38    81    80    2
    39    72    73    2
    40    80    82   am
    41    84    85    2
    42    84    83    1
    43    27    26   ar
    44    28    26   ar
    45    82    83    1
    46    82    88    1
    47    42    40   am
    48    26    25    1
    49    83    86    1
    50    88    87    1
    51    40    41    2
    52    40    39    1
    53    87    86    1
    54    25    22    1
    55    16    14    1
    56    39    36    1
    57    34    33    2
    58    14    11    1
    59    14    15    1
    60    22    23    1
    61    22    21    1
    62    13    12    2
    63    33    35   am
    64    33    32    1
    65    36    35    1
    66    36    37    1
    67    31    23   am
    68    31    32    1
    69    11    12    1
    70    11    10    1
    71    23    24    2
    72    12    17   am
    73     9     8    2
    74    37    38    2
    75    10     8   am
    76     5     2    1
    77     8     7    1
    78     4     3    2
    79    17    18    1
    80     3     2    1
    81     3     6   am
    82    18    19    1
    83     2     1    1
    84     7     6    1
    85    19    20    2
