@<TRIPOS>MOLECULE
tmp/2gvvA00.pdb
 142 132 0 0 0
SMALL
GASTEIGER

@<TRIPOS>ATOM
      1  N         14.6060    5.7440   68.0310 N.3    19  GLU19      -0.1245
      2  CA        13.8320    5.1750   66.9380 C.3    19  GLU19       0.1567
      3  C         12.4310    4.7460   67.3620 C.2    19  GLU19       0.2260
      4  O         12.0280    4.9260   68.5110 O.2    19  GLU19      -0.2867
      5  CB        14.5870    3.9600   66.3770 C.3    19  GLU19       0.0388
      6  CG        15.2880    4.2010   65.0460 C.3    19  GLU19       0.1160
      7  CD        14.3880    3.9120   63.8670 C.2    19  GLU19       0.3649
      8  OE1       13.1640    4.0940   64.0140 O.co2  19  GLU19      -0.2457
      9  OE2       14.9060    3.5180   62.7950 O.co2  19  GLU19      -0.2457
     10  N         17.9250    1.5970   70.1990 N.3    34  PRO34      -0.2102
     11  CA        18.6650    0.4490   69.6730 C.3    34  PRO34       0.1504
     12  C         20.1720    0.4390   69.8940 C.2    34  PRO34       0.2575
     13  O         20.7830   -0.6290   69.9190 O.2    34  PRO34      -0.2718
     14  CB        18.3120    0.4670   68.1850 C.3    34  PRO34       0.0282
     15  CG        18.1320    1.9270   67.9040 C.3    34  PRO34       0.0208
     16  CD        17.3420    2.3950   69.1040 C.3    34  PRO34       0.0893
     17  N         20.7660    1.6140   70.0700 N.am   35  GLU35      -0.1980
     18  CA        22.2130    1.7040   70.2180 C.3    35  GLU35       0.1602
     19  C         22.8020    1.6980   71.6190 C.2    35  GLU35       0.2287
     20  O         23.9850    1.9920   71.7910 O.2    35  GLU35      -0.2864
     21  CB        22.7250    2.9230   69.4530 C.3    35  GLU35       0.0415
     22  CG        22.5140    2.8140   67.9550 C.3    35  GLU35       0.1163
     23  CD        23.0340    4.0210   67.2060 C.2    35  GLU35       0.3649
     24  OE1       24.2340    4.3400   67.3530 O.co2  35  GLU35      -0.2457
     25  OE2       22.2440    4.6470   66.4690 O.co2  35  GLU35      -0.2457
     26  N         18.2400   -5.2270   69.8230 N.3    70  ILE70      -0.1245
     27  CA        18.4620   -3.9410   69.1860 C.3    70  ILE70       0.1561
     28  C         17.0830   -3.5360   68.6580 C.2    70  ILE70       0.2260
     29  O         16.8190   -3.5990   67.4590 O.2    70  ILE70      -0.2867
     30  CB        19.4770   -4.0480   68.0120 C.3    70  ILE70       0.0252
     31  CG1       20.8510   -4.4770   68.5460 C.3    70  ILE70       0.0019
     32  CG2       19.5980   -2.7110   67.2980 C.3    70  ILE70       0.0019
     33  CD1       21.9100   -4.6400   67.4570 C.3    70  ILE70       0.0001
     34  N         14.1820   -1.5340   67.1760 N.3    72  ALA72      -0.1245
     35  CA        14.2480   -0.4240   66.2350 C.3    72  ALA72       0.1562
     36  C         12.9470    0.1530   65.6970 C.2    72  ALA72       0.2260
     37  O         12.9430    1.2790   65.2130 O.2    72  ALA72      -0.2867
     38  CB        15.1330   -0.8270   65.0570 C.3    72  ALA72       0.0290
     39  N         16.5030   -5.7890   65.5960 N.3    88  MET88      -0.1245
     40  CA        17.5540   -6.2090   64.6680 C.3    88  MET88       0.1570
     41  C         18.3020   -7.4760   65.0830 C.2    88  MET88       0.2261
     42  O         18.9480   -8.1190   64.2560 O.2    88  MET88      -0.2867
     43  CB        18.5500   -5.0640   64.4590 C.3    88  MET88       0.0387
     44  CG        17.9790   -3.8620   63.7190 C.3    88  MET88       0.0595
     45  SD        17.8190   -4.1140   61.9330 S.3    88  MET88      -0.1393
     46  CE        19.5070   -3.7290   61.4160 C.3    88  MET88       0.0692
     47  N         13.6060   -4.3410   61.3450 N.3   118  ASN118     -0.1240
     48  CA        13.8280   -2.9200   61.5970 C.3   118  ASN118      0.1653
     49  C         12.5670   -2.0940   61.8480 C.2   118  ASN118      0.2266
     50  O         12.5100   -1.3380   62.8170 O.2   118  ASN118     -0.2867
     51  CB        14.6170   -2.3110   60.4340 C.3   118  ASN118      0.1155
     52  CG        15.0990   -0.9130   60.7360 C.2   118  ASN118      0.2627
     53  OD1       14.3340    0.0500   60.6840 O.2   118  ASN118     -0.2716
     54  ND2       16.3760   -0.7940   61.0730 N.am  118  ASN118     -0.0877
     55  N         25.9280  -11.0530   64.1890 N.3   142  TYR142     -0.1241
     56  CA        25.2380   -9.8900   63.6450 C.3   142  TYR142      0.1605
     57  C         25.7860   -9.3850   62.3190 C.2   142  TYR142      0.2264
     58  O         26.9860   -9.1550   62.1710 O.2   142  TYR142     -0.2867
     59  CB        25.2720   -8.7540   64.6680 C.3   142  TYR142      0.0534
     60  CG        24.4800   -7.5300   64.2600 C.ar  142  TYR142     -0.0201
     61  CD1       23.1140   -7.6190   63.9930 C.ar  142  TYR142     -0.0009
     62  CD2       25.0900   -6.2780   64.1750 C.ar  142  TYR142     -0.0009
     63  CE1       22.3700   -6.4890   63.6560 C.ar  142  TYR142      0.0417
     64  CE2       24.3550   -5.1400   63.8380 C.ar  142  TYR142      0.0417
     65  CZ        22.9950   -5.2550   63.5830 C.ar  142  TYR142      0.1957
     66  OH        22.2570   -4.1340   63.2680 O.3   142  TYR142     -0.2866
     67  N         23.5900   -3.5390   54.3370 N.3   146  MET146     -0.1245
     68  CA        23.8840   -2.2030   53.8290 C.3   146  MET146      0.1570
     69  C         24.6760   -2.2750   52.5280 C.2   146  MET146      0.2261
     70  O         24.5570   -1.3970   51.6710 O.2   146  MET146     -0.2867
     71  CB        24.6740   -1.3940   54.8610 C.3   146  MET146      0.0387
     72  CG        23.8170   -0.5280   55.7690 C.3   146  MET146      0.0595
     73  SD        22.9270    0.7540   54.8510 S.3   146  MET146     -0.1393
     74  CE        24.1950    1.9960   54.6900 C.3   146  MET146      0.0692
     75  N         19.1060   -3.2940   52.5270 N.3   171  PHE171     -0.1241
     76  CA        18.6570   -2.5960   53.7240 C.3   171  PHE171      0.1605
     77  C         17.2400   -2.0280   53.6820 C.2   171  PHE171      0.2264
     78  O         17.0390   -0.8100   53.6480 O.2   171  PHE171     -0.2867
     79  CB        19.6430   -1.4900   54.1320 C.3   171  PHE171      0.0534
     80  CG        19.6890   -1.2560   55.6230 C.ar  171  PHE171     -0.0203
     81  CD1       18.7450   -0.4470   56.2500 C.ar  171  PHE171     -0.0042
     82  CD2       20.6360   -1.9080   56.4100 C.ar  171  PHE171     -0.0042
     83  CE1       18.7420   -0.2960   57.6370 C.ar  171  PHE171     -0.0003
     84  CE2       20.6420   -1.7640   57.7980 C.ar  171  PHE171     -0.0003
     85  CZ        19.6910   -0.9570   58.4120 C.ar  171  PHE171     -0.0000
     86  N         14.0340   -0.6380   55.0560 N.3   173  ASN173     -0.1240
     87  CA        13.9240    0.0940   56.3090 C.3   173  ASN173      0.1653
     88  C         12.4920    0.4810   56.6660 C.2   173  ASN173      0.2266
     89  O         11.7520   -0.3110   57.2580 O.2   173  ASN173     -0.2867
     90  CB        14.7980    1.3460   56.1950 C.3   173  ASN173      0.1155
     91  CG        15.2600    1.8600   57.5330 C.2   173  ASN173      0.2627
     92  OD1       14.5590    1.7340   58.5320 O.2   173  ASN173     -0.2716
     93  ND2       16.4430    2.4700   57.5560 N.am  173  ASN173     -0.0877
     94  N         17.0580    1.9770   51.9890 N.3   193  THR193     -0.1218
     95  CA        17.9040    3.1010   52.3510 C.3   193  THR193      0.1862
     96  C         19.0540    3.5660   51.4550 C.2   193  THR193      0.2287
     97  O         18.9700    4.6350   50.8620 O.2   193  THR193     -0.2866
     98  CB        18.4080    2.9290   53.7990 C.3   193  THR193      0.1770
     99  OG1       17.2740    2.7720   54.6670 O.3   193  THR193     -0.2211
    100  CG2       19.1950    4.1580   54.2460 C.3   193  THR193      0.0375
    101  N         23.2170    7.5660   53.3500 N.3   224  GLY224     -0.1225
    102  CA        21.9750    7.4100   54.0800 C.3   224  GLY224      0.1811
    103  C         20.8150    7.3110   53.1080 C.2   224  GLY224      0.2280
    104  O         20.9780    6.8050   51.9980 O.2   224  GLY224     -0.2866
    105  N         14.4530    6.4380   55.8680 N.3   227  ASP227     -0.1239
    106  CA        14.4470    5.6390   57.0850 C.3   227  ASP227      0.1674
    107  C         12.9780    5.3430   57.4060 C.2   227  ASP227      0.2266
    108  O         12.3850    4.4520   56.8010 O.2   227  ASP227     -0.2867
    109  CB        15.1100    6.4160   58.2310 C.3   227  ASP227      0.1410
    110  CG        15.4380    5.5390   59.4250 C.2   227  ASP227      0.3668
    111  OD1       14.8060    4.4760   59.5780 O.co2 227  ASP227     -0.2456
    112  OD2       16.3270    5.9200   60.2230 O.co2 227  ASP227     -0.2456
    113  N         17.3000   10.3270   56.2290 N.3   242  TRP242     -0.1241
    114  CA        18.4640   10.2970   57.1080 C.3   242  TRP242      0.1605
    115  C         19.7310   10.7830   56.4050 C.2   242  TRP242      0.2264
    116  O         20.1460   10.2230   55.3870 O.2   242  TRP242     -0.2867
    117  CB        18.6720    8.8660   57.6100 C.3   242  TRP242      0.0550
    118  CG        19.5560    8.7150   58.8230 C.ar  242  TRP242      0.0003
    119  CD1       19.1490    8.5770   60.1190 C.ar  242  TRP242      0.0946
    120  CD2       20.9860    8.6010   58.8390 C.ar  242  TRP242      0.0152
    121  NE1       20.2350    8.3700   60.9410 N.ar  242  TRP242     -0.2442
    122  CE2       21.3740    8.3830   60.1810 C.ar  242  TRP242      0.0810
    123  CE3       21.9760    8.6600   57.8500 C.ar  242  TRP242      0.0012
    124  CZ2       22.7130    8.2220   60.5580 C.ar  242  TRP242      0.0191
    125  CZ3       23.3100    8.4990   58.2270 C.ar  242  TRP242      0.0001
    126  CH2       23.6630    8.2820   59.5690 C.ar  242  TRP242      0.0015
    127  N         15.2970   10.2700   61.7230 N.3   269  SER269     -0.1217
    128  CA        15.2190    8.8190   61.6120 C.3   269  SER269      0.1889
    129  C         13.8080    8.2690   61.4480 C.2   269  SER269      0.2288
    130  O         13.5190    7.5640   60.4840 O.2   269  SER269     -0.2866
    131  CB        15.8750    8.1750   62.8360 C.3   269  SER269      0.2089
    132  OG        15.7330    6.7670   62.8070 O.3   269  SER269     -0.2183
    133  N         19.1750   11.2230   64.8410 N.3   285  HIS285     -0.1241
    134  CA        20.4390   10.7030   65.3270 C.3   285  HIS285      0.1621
    135  C         21.6280   11.6440   65.3840 C.2   285  HIS285      0.2264
    136  O         22.7550   11.1960   65.6010 O.2   285  HIS285     -0.2867
    137  CB        20.7930    9.4530   64.5260 C.3   285  HIS285      0.0745
    138  CG        19.7600    8.3750   64.6330 C.ar  285  HIS285      0.0817
    139  ND1       19.7500    7.2650   63.8160 N.ar  285  HIS285     -0.2268
    140  CD2       18.6990    8.2400   65.4640 C.ar  285  HIS285      0.1154
    141  CE1       18.7280    6.4930   64.1400 C.ar  285  HIS285      0.1986
    142  NE2       18.0740    7.0620   65.1370 N.ar  285  HIS285     -0.2212
@<TRIPOS>BOND
     1    97    96    2
     2    96    95    1
     3    70    69    2
     4    94    95    1
     5   104   103    2
     6    95    98    1
     7    75    76    1
     8    69    68    1
     9   103   102    1
    10   101   102    1
    11    78    77    2
    12    77    76    1
    13    76    79    1
    14    98   100    1
    15    98    99    1
    16    68    67    1
    17    68    71    1
    18    79    80    1
    19    74    73    1
    20    73    72    1
    21    71    72    1
    22    86    87    1
    23   116   115    2
    24    80    81   ar
    25    80    82   ar
    26   105   106    1
    27    90    87    1
    28    90    91    1
    29   113   114    1
    30    81    83   ar
    31    87    88    1
    32   115   114    1
    33    82    84   ar
    34    88    89    2
    35   108   107    2
    36   106   107    1
    37   106   109    1
    38   114   117    1
    39    91    93   am
    40    91    92    2
    41   117   118    1
    42    83    85   ar
    43    84    85   ar
    44   123   125   ar
    45   123   120   ar
    46   125   126   ar
    47   109   110    1
    48   118   120   ar
    49   118   119   ar
    50   120   122   ar
    51   110   111   ar
    52   110   112   ar
    53   126   124   ar
    54   119   121   ar
    55   122   124   ar
    56   122   121   ar
    57    51    52    1
    58    51    48    1
    59   130   129    2
    60    53    52    2
    61    52    54   am
    62    47    48    1
    63    46    45    1
    64   129   128    1
    65    48    49    1
    66   128   127    1
    67   128   131    1
    68    49    50    2
    69    45    44    1
    70    58    57    2
    71    57    56    1
    72     9     7   ar
    73   132   131    1
    74    66    65    1
    75    65    63   ar
    76    65    64   ar
    77    56    55    1
    78    56    59    1
    79    63    61   ar
    80    44    43    1
    81   139   141   ar
    82   139   138   ar
    83    64    62   ar
    84     7     8   ar
    85     7     6    1
    86    61    60   ar
    87   141   142   ar
    88    62    60   ar
    89    42    41    2
    90    60    59    1
    91    43    40    1
    92   137   138    1
    93   137   134    1
    94   138   140   ar
    95    40    41    1
    96    40    39    1
    97   133   134    1
    98     6     5    1
    99    38    35    1
   100   142   140   ar
   101    37    36    2
   102   134   135    1
   103   135   136    2
   104    36    35    1
   105    35    34    1
   106     5     2    1
   107    25    23   ar
   108     2     3    1
   109     2     1    1
   110    23    24   ar
   111    23    22    1
   112    32    30    1
   113     3     4    2
   114    33    31    1
   115    29    28    2
   116    15    14    1
   117    15    16    1
   118    22    21    1
   119    30    31    1
   120    30    27    1
   121    14    11    1
   122    28    27    1
   123    16    10    1
   124    27    26    1
   125    21    18    1
   126    11    12    1
   127    11    10    1
   128    12    13    2
   129    12    17   am
   130    17    18    1
   131    18    19    1
   132    19    20    2
