@<TRIPOS>MOLECULE
tmp/2gvyB01.pdb
 186 179 0 0 0
SMALL
GASTEIGER

@<TRIPOS>ATOM
      1  N         -2.1840   14.1290  -53.2570 N.3    35  GLN35      -0.1245
      2  CA        -2.9450   14.5460  -52.0890 C.3    35  GLN35       0.1566
      3  C         -4.4280   14.2590  -52.1850 C.2    35  GLN35       0.2260
      4  O         -5.2460   15.0900  -51.7470 O.2    35  GLN35      -0.2867
      5  CB        -2.7510   16.0380  -51.8380 C.3    35  GLN35       0.0367
      6  CG        -1.3010   16.3930  -51.5750 C.3    35  GLN35       0.0905
      7  CD        -1.0640   17.8500  -51.3820 C.2    35  GLN35       0.2608
      8  OE1       -1.0710   18.6140  -52.3520 O.2    35  GLN35      -0.2717
      9  NE2       -0.8050   18.2530  -50.1410 N.am   35  GLN35      -0.0878
     10  N         -4.5740   22.1400  -52.6620 N.3    75  TYR75      -0.1241
     11  CA        -3.7580   21.2780  -51.8190 C.3    75  TYR75       0.1605
     12  C         -4.3320   19.8770  -51.6860 C.2    75  TYR75       0.2264
     13  O         -3.9970   19.1810  -50.7340 O.2    75  TYR75      -0.2867
     14  CB        -3.6530   21.8550  -50.4090 C.3    75  TYR75       0.0534
     15  CG        -2.8910   23.1530  -50.3090 C.ar   75  TYR75      -0.0201
     16  CD1       -1.8730   23.4700  -51.2410 C.ar   75  TYR75      -0.0009
     17  CD2       -3.1420   24.0530  -49.2670 C.ar   75  TYR75      -0.0009
     18  CE1       -1.1500   24.6790  -51.1460 C.ar   75  TYR75       0.0417
     19  CE2       -2.3920   25.2600  -49.1600 C.ar   75  TYR75       0.0417
     20  CZ        -1.4220   25.5620  -50.0990 C.ar   75  TYR75       0.1957
     21  OH        -0.7050   26.7810  -49.9900 O.3    75  TYR75      -0.2866
     22  N         -8.2520   14.4140  -47.0820 N.3    79  TYR79      -0.1227
     23  CA        -8.0380   12.9820  -46.7860 C.3    79  TYR79       0.1736
     24  C         -7.5120   12.7950  -45.3700 C.2    79  TYR79       0.2595
     25  O         -7.6940   11.7260  -44.7430 O.2    79  TYR79      -0.2718
     26  CB        -7.0910   12.3540  -47.8250 C.3    79  TYR79       0.0548
     27  CG        -5.6720   12.8480  -47.7020 C.ar   79  TYR79      -0.0200
     28  CD1       -5.2340   13.9470  -48.4520 C.ar   79  TYR79      -0.0009
     29  CD2       -4.7870   12.2680  -46.7890 C.ar   79  TYR79      -0.0009
     30  CE1       -3.9170   14.4490  -48.3180 C.ar   79  TYR79       0.0417
     31  CE2       -3.4610   12.7310  -46.6920 C.ar   79  TYR79       0.0417
     32  CZ        -3.0630   13.8240  -47.4210 C.ar   79  TYR79       0.1957
     33  OH        -1.7940   14.3200  -47.2590 O.3    79  TYR79      -0.2866
     34  N         -6.8620   13.8330  -44.8440 N.am   80  HIS80      -0.1975
     35  CA        -6.2450   13.7710  -43.5110 C.3    80  HIS80       0.1656
     36  C         -7.2050   14.0500  -42.3270 C.2    80  HIS80       0.2291
     37  O         -6.8220   13.8620  -41.1580 O.2    80  HIS80      -0.2864
     38  CB        -5.0850   14.8090  -43.5060 C.3    80  HIS80       0.0771
     39  CG        -5.5060   16.1280  -44.0480 C.ar   80  HIS80       0.0820
     40  ND1       -6.3580   16.9480  -43.3530 N.ar   80  HIS80      -0.2267
     41  CD2       -5.2610   16.7550  -45.2350 C.ar   80  HIS80       0.1154
     42  CE1       -6.6130   18.0320  -44.0700 C.ar   80  HIS80       0.1986
     43  NE2       -5.9740   17.9310  -45.2220 N.ar   80  HIS80      -0.2212
     44  N         -8.4700   17.0510  -41.1980 N.3    82  TYR82      -0.1227
     45  CA        -8.3070   18.3020  -40.4200 C.3    82  TYR82       0.1736
     46  C         -9.0200   19.5260  -40.9770 C.2    82  TYR82       0.2595
     47  O         -8.7970   20.6490  -40.4810 O.2    82  TYR82      -0.2718
     48  CB        -6.8190   18.5990  -40.2180 C.3    82  TYR82       0.0548
     49  CG        -6.0840   17.4900  -39.4180 C.ar   82  TYR82      -0.0200
     50  CD1       -6.2420   17.3920  -38.0360 C.ar   82  TYR82      -0.0009
     51  CD2       -5.2170   16.6010  -40.0640 C.ar   82  TYR82      -0.0009
     52  CE1       -5.5660   16.4050  -37.3000 C.ar   82  TYR82       0.0417
     53  CE2       -4.5480   15.5870  -39.3480 C.ar   82  TYR82       0.0417
     54  CZ        -4.7170   15.5110  -37.9690 C.ar   82  TYR82       0.1957
     55  OH        -4.0340   14.5460  -37.2890 O.3    82  TYR82      -0.2866
     56  N         -9.8720   19.3290  -41.9880 N.am   83  TRP83      -0.1976
     57  CA       -10.6170   20.4560  -42.5770 C.3    83  TRP83       0.1640
     58  C        -12.1670   20.2520  -42.4730 C.2    83  TRP83       0.2290
     59  O        -12.8650   20.1340  -43.4950 O.2    83  TRP83      -0.2864
     60  CB       -10.2320   20.5770  -44.0510 C.3    83  TRP83       0.0576
     61  CG        -8.7610   20.8550  -44.3310 C.ar   83  TRP83       0.0006
     62  CD1       -7.8080   21.3720  -43.4760 C.ar   83  TRP83       0.0946
     63  CD2       -8.1070   20.6590  -45.5900 C.ar   83  TRP83       0.0152
     64  NE1       -6.5880   21.5130  -44.1580 N.ar   83  TRP83      -0.2442
     65  CE2       -6.7580   21.0870  -45.4490 C.ar   83  TRP83       0.0810
     66  CE3       -8.5430   20.1880  -46.8380 C.ar   83  TRP83       0.0012
     67  CZ2       -5.8440   21.0420  -46.5090 C.ar   83  TRP83       0.0191
     68  CZ3       -7.6140   20.1370  -47.8930 C.ar   83  TRP83       0.0001
     69  CH2       -6.2910   20.5780  -47.7140 C.ar   83  TRP83       0.0015
     70  N        -10.6220   25.0320  -35.4030 N.3   122  HIS122     -0.1241
     71  CA       -11.0170   25.5410  -36.7170 C.3   122  HIS122      0.1621
     72  C        -11.8860   24.5790  -37.5360 C.2   122  HIS122      0.2264
     73  O        -11.9160   23.3560  -37.3180 O.2   122  HIS122     -0.2867
     74  CB        -9.7630   25.8870  -37.5280 C.3   122  HIS122      0.0745
     75  CG        -8.8280   24.7140  -37.7060 C.ar  122  HIS122      0.0817
     76  ND1       -7.7960   24.4360  -36.8270 N.ar  122  HIS122     -0.2268
     77  CD2       -8.8100   23.7240  -38.6310 C.ar  122  HIS122      0.1154
     78  CE1       -7.1710   23.3330  -37.2150 C.ar  122  HIS122      0.1986
     79  NE2       -7.7710   22.8750  -38.3080 N.ar  122  HIS122     -0.2212
     80  N         -5.2260   29.9480  -38.8590 N.3   166  LEU166     -0.1231
     81  CA        -4.2530   29.0840  -39.4740 C.3   166  LEU166      0.1693
     82  C         -4.5260   28.9590  -40.9770 C.2   166  LEU166      0.2592
     83  O         -5.5450   29.4030  -41.4850 O.2   166  LEU166     -0.2718
     84  CB        -4.3870   27.6760  -38.8600 C.3   166  LEU166      0.0284
     85  CG        -3.6870   27.5290  -37.5230 C.3   166  LEU166      0.0019
     86  CD1       -3.9760   26.1150  -36.9290 C.3   166  LEU166      0.0001
     87  CD2       -2.1790   27.7480  -37.7340 C.3   166  LEU166      0.0001
     88  N         -3.6330   28.2800  -41.6680 N.am  167  GLY167     -0.1957
     89  CA        -3.8100   28.0580  -43.0830 C.3   167  GLY167      0.1869
     90  C         -3.3380   29.2470  -43.8920 C.2   167  GLY167      0.2309
     91  O         -2.5280   30.0800  -43.4090 O.2   167  GLY167     -0.2863
     92  N         -6.1780   27.2680  -48.7720 N.3   171  VAL171     -0.1245
     93  CA        -7.1280   26.5840  -47.8860 C.3   171  VAL171      0.1561
     94  C         -7.1450   27.3550  -46.5700 C.2   171  VAL171      0.2260
     95  O         -6.1380   27.4120  -45.8640 O.2   171  VAL171     -0.2867
     96  CB        -6.7820   25.0830  -47.6180 C.3   171  VAL171      0.0252
     97  CG1       -7.8430   24.4530  -46.6750 C.3   171  VAL171      0.0019
     98  CG2       -6.7580   24.2820  -48.9370 C.3   171  VAL171      0.0019
     99  N         -8.6320   28.1310  -42.6380 N.3   173  LEU173     -0.1245
    100  CA        -9.0660   27.3610  -41.4740 C.3   173  LEU173      0.1561
    101  C         -9.7960   28.3400  -40.5400 C.2   173  LEU173      0.2260
    102  O         -9.2400   28.8040  -39.5250 O.2   173  LEU173     -0.2867
    103  CB        -7.8400   26.7270  -40.8030 C.3   173  LEU173      0.0270
    104  CG        -6.9260   25.8240  -41.6490 C.3   173  LEU173      0.0019
    105  CD1       -5.9830   25.0690  -40.7360 C.3   173  LEU173      0.0001
    106  CD2       -7.7580   24.7950  -42.4560 C.3   173  LEU173      0.0001
    107  N         -6.7440   12.5310  -28.9590 N.3   204  ARG204     -0.1245
    108  CA        -5.5880   13.3700  -29.3030 C.3   204  ARG204      0.1563
    109  C         -6.1460   14.6940  -29.7960 C.2   204  ARG204      0.2260
    110  O         -6.9090   14.7080  -30.7620 O.2   204  ARG204     -0.2867
    111  CB        -4.7610   12.7120  -30.3890 C.3   204  ARG204      0.0307
    112  CG        -3.5060   13.5240  -30.8050 C.3   204  ARG204      0.0489
    113  CD        -3.8080   14.4330  -32.0060 C.3   204  ARG204      0.2205
    114  NE        -2.5800   15.0020  -32.5750 N.pl3 204  ARG204     -0.0865
    115  CZ        -2.5650   15.9080  -33.5620 C.cat 204  ARG204      0.5346
    116  NH1       -3.7090   16.4060  -34.0410 N.pl3 204  ARG204      0.1354
    117  NH2       -1.3970   16.3490  -34.0400 N.pl3 204  ARG204      0.1354
    118  N         -5.8710   18.3130  -31.4940 N.3   206  ASP206     -0.1225
    119  CA        -5.0950   19.0460  -32.4950 C.3   206  ASP206      0.1805
    120  C         -4.9500   20.5080  -32.0570 C.2   206  ASP206      0.2598
    121  O         -5.7620   20.9830  -31.2630 O.2   206  ASP206     -0.2718
    122  CB        -5.8770   19.0030  -33.8160 C.3   206  ASP206      0.1424
    123  CG        -5.0950   19.4770  -34.9650 C.2   206  ASP206      0.3668
    124  OD1       -4.0320   18.8780  -35.2180 O.co2 206  ASP206     -0.2456
    125  OD2       -5.5250   20.4450  -35.6680 O.co2 206  ASP206     -0.2456
    126  N         -3.9020   21.1720  -32.5350 N.am  207  THR207     -0.1953
    127  CA        -3.8190   22.6380  -32.4700 C.3   207  THR207      0.1897
    128  C         -4.1220   23.2540  -31.1020 C.2   207  THR207      0.2313
    129  O         -4.7520   24.3280  -31.0010 O.2   207  THR207     -0.2863
    130  CB        -4.6560   23.3120  -33.6050 C.3   207  THR207      0.1794
    131  OG1       -5.9320   22.6550  -33.7810 O.3   207  THR207     -0.2208
    132  CG2       -3.8760   23.2380  -34.8900 C.3   207  THR207      0.0378
    133  N         -1.8050   18.2740  -28.9320 N.3   230  GLU230     -0.1245
    134  CA        -0.7010   18.6850  -29.8010 C.3   230  GLU230      0.1567
    135  C         -0.3640   20.1360  -29.5370 C.2   230  GLU230      0.2260
    136  O         -1.0800   21.0550  -29.9610 O.2   230  GLU230     -0.2867
    137  CB        -1.0570   18.5060  -31.2820 C.3   230  GLU230      0.0388
    138  CG         0.1640   18.8330  -32.2010 C.3   230  GLU230      0.1160
    139  CD        -0.2060   19.6690  -33.4330 C.2   230  GLU230      0.3649
    140  OE1       -1.2750   20.3030  -33.4410 O.co2 230  GLU230     -0.2457
    141  OE2        0.5930   19.6710  -34.4130 O.co2 230  GLU230     -0.2457
    142  N          2.5430   22.3600  -30.5950 N.3   232  LEU232     -0.1245
    143  CA         3.6330   22.2430  -31.5580 C.3   232  LEU232      0.1561
    144  C          4.7560   23.2480  -31.2050 C.2   232  LEU232      0.2260
    145  O          4.8350   24.3430  -31.7550 O.2   232  LEU232     -0.2867
    146  CB         3.0730   22.4550  -32.9860 C.3   232  LEU232      0.0270
    147  CG         3.7240   21.5810  -34.0660 C.3   232  LEU232      0.0019
    148  CD1        3.2060   22.0430  -35.4460 C.3   232  LEU232      0.0001
    149  CD2        5.2210   21.5890  -33.9970 C.3   232  LEU232      0.0001
    150  N          3.0340   12.7880  -39.1200 N.3   296  HIS296     -0.1226
    151  CA         2.5930   13.2070  -40.4640 C.3   296  HIS296      0.1752
    152  C          2.8630   14.6630  -40.7360 C.2   296  HIS296      0.2596
    153  O          2.4980   15.1890  -41.7890 O.2   296  HIS296     -0.2718
    154  CB         1.0950   12.9490  -40.5840 C.3   296  HIS296      0.0759
    155  CG         0.2780   13.5550  -39.4970 C.ar  296  HIS296      0.0818
    156  ND1        0.7350   13.6950  -38.2040 N.ar  296  HIS296     -0.2268
    157  CD2       -0.9880   14.0480  -39.5070 C.ar  296  HIS296      0.1154
    158  CE1       -0.2100   14.2580  -37.4640 C.ar  296  HIS296      0.1986
    159  NE2       -1.2660   14.4840  -38.2280 N.ar  296  HIS296     -0.2212
    160  N          3.5360   15.2790  -39.7820 N.am  297  ASP297     -0.1974
    161  CA         3.8740   16.7280  -39.8280 C.3   297  ASP297      0.1709
    162  C          5.3900   17.0760  -39.8620 C.2   297  ASP297      0.2293
    163  O          5.7850   18.2770  -39.7910 O.2   297  ASP297     -0.2864
    164  CB         3.2690   17.3790  -38.6300 C.3   297  ASP297      0.1436
    165  CG         1.7470   17.3990  -38.6450 C.2   297  ASP297      0.3671
    166  OD1        1.1210   17.4290  -39.7410 O.co2 297  ASP297     -0.2456
    167  OD2        1.2080   17.4360  -37.5140 O.co2 297  ASP297     -0.2456
    168  N          5.1120   16.6180  -45.5280 N.3   340  ASP340     -0.1239
    169  CA         3.7330   16.6670  -46.0740 C.3   340  ASP340      0.1674
    170  C          3.6780   17.3150  -47.4790 C.2   340  ASP340      0.2266
    171  O          4.0130   18.4810  -47.6610 O.2   340  ASP340     -0.2867
    172  CB         2.9060   17.4420  -45.0220 C.3   340  ASP340      0.1410
    173  CG         1.4420   17.6640  -45.4050 C.2   340  ASP340      0.3668
    174  OD1        0.9660   17.1060  -46.4100 O.co2 340  ASP340     -0.2456
    175  OD2        0.7410   18.3750  -44.6090 O.co2 340  ASP340     -0.2456
    176  N          2.7680   10.9120  -45.8010 N.3   344  ARG344     -0.1245
    177  CA         1.4370   10.3150  -45.6820 C.3   344  ARG344      0.1563
    178  C          1.2730    9.0950  -46.5980 C.2   344  ARG344      0.2260
    179  O          0.1670    8.8190  -47.1470 O.2   344  ARG344     -0.2867
    180  CB         0.3840   11.3630  -46.0000 C.3   344  ARG344      0.0307
    181  CG         0.2180   12.4220  -44.8940 C.3   344  ARG344      0.0489
    182  CD         0.8950   13.7700  -45.2580 C.3   344  ARG344      0.2205
    183  NE         0.8440   14.6460  -44.0620 N.pl3 344  ARG344     -0.0865
    184  CZ        -0.2310   15.2950  -43.6150 C.cat 344  ARG344      0.5346
    185  NH1       -1.3860   15.2560  -44.2780 N.pl3 344  ARG344      0.1354
    186  NH2       -0.1460   16.0240  -42.5130 N.pl3 344  ARG344      0.1354
@<TRIPOS>BOND
     1     1     2    1
     2    10    11    1
     3     8     7    2
     4     3     2    1
     5     3     4    2
     6     2     5    1
     7     5     6    1
     8    11    12    1
     9    11    14    1
    10    12    13    2
    11     6     7    1
    12     7     9   am
    13    16    18   ar
    14    16    15   ar
    15    18    20   ar
    16    14    15    1
    17    15    17   ar
    18    20    21    1
    19    20    19   ar
    20    17    19   ar
    21    98    96    1
    22    92    93    1
    23    28    30   ar
    24    28    27   ar
    25    30    32   ar
    26    68    69   ar
    27    68    66   ar
    28    93    96    1
    29    93    94    1
    30    26    27    1
    31    26    23    1
    32    69    67   ar
    33    27    29   ar
    34   171   170    2
    35    96    97    1
    36   170   169    1
    37    32    33    1
    38    32    31   ar
    39   179   178    2
    40    22    23    1
    41    66    63   ar
    42    29    31   ar
    43    23    24    1
    44   178   177    1
    45    94    95    2
    46    67    65   ar
    47   174   173   ar
    48   169   168    1
    49   169   172    1
    50   180   177    1
    51   180   181    1
    52   176   177    1
    53    63    65   ar
    54    63    61   ar
    55    65    64   ar
    56   173   172    1
    57   173   175   ar
    58    24    34   am
    59    24    25    2
    60   182   181    1
    61   182   183    1
    62    41    43   ar
    63    41    39   ar
    64    43    42   ar
    65    34    35    1
    66    61    60    1
    67    61    62   ar
    68   185   184    1
    69    64    62   ar
    70    42    40   ar
    71   183   184    2
    72    60    57    1
    73    39    38    1
    74    39    40   ar
    75    90    91    2
    76    90    89    1
    77   184   186    1
    78    35    38    1
    79    35    36    1
    80    59    58    2
    81    89    88    1
    82    99   100    1
    83    57    58    1
    84    57    56    1
    85   106   104    1
    86    36    37    2
    87    56    46   am
    88   153   152    2
    89    88    82   am
    90   104   103    1
    91   104   105    1
    92    83    82    2
    93   100   103    1
    94   100   101    1
    95    44    45    1
    96    82    81    1
    97    46    47    2
    98    46    45    1
    99   152   151    1
   100   152   160   am
   101   154   151    1
   102   154   155    1
   103   101   102    2
   104   151   150    1
   105    45    48    1
   106    48    49    1
   107    51    49   ar
   108    51    53   ar
   109   162   161    1
   110   162   163    2
   111   161   160    1
   112   161   164    1
   113   166   165   ar
   114   157   155   ar
   115   157   159   ar
   116   155   156   ar
   117    81    84    1
   118    81    80    1
   119    49    50   ar
   120    53    54   ar
   121    84    85    1
   122   165   164    1
   123   165   167   ar
   124    77    79   ar
   125    77    75   ar
   126    79    78   ar
   127   159   158   ar
   128   156   158   ar
   129    50    52   ar
   130    54    52   ar
   131    54    55    1
   132    87    85    1
   133    75    74    1
   134    75    76   ar
   135    72    73    2
   136    72    71    1
   137    74    71    1
   138    85    86    1
   139    78    76   ar
   140    71    70    1
   141   125   123   ar
   142   148   147    1
   143   124   123   ar
   144   123   122    1
   145   132   130    1
   146   141   139   ar
   147   147   149    1
   148   147   146    1
   149   116   115    1
   150   117   115    1
   151   122   119    1
   152   131   130    1
   153   130   127    1
   154   115   114    2
   155   140   139   ar
   156   139   138    1
   157   146   143    1
   158   114   113    1
   159   126   127    1
   160   126   120   am
   161   119   120    1
   162   119   118    1
   163   127   128    1
   164   138   137    1
   165   120   121    2
   166   113   112    1
   167   145   144    2
   168   143   144    1
   169   143   142    1
   170   137   134    1
   171   128   129    2
   172   112   111    1
   173   110   109    2
   174   111   108    1
   175   136   135    2
   176   134   135    1
   177   134   133    1
   178   109   108    1
   179   108   107    1
