@<TRIPOS>MOLECULE
tmp/2gvyB02.pdb
 99 93 0 0 0
SMALL
GASTEIGER

@<TRIPOS>ATOM
      1  N          4.4700   34.3310  -34.2910 N.3   155  TYR155     -0.1241
      2  CA         4.2400   33.2510  -33.3170 C.3   155  TYR155      0.1605
      3  C          4.7230   33.5910  -31.9110 C.2   155  TYR155      0.2264
      4  O          4.4180   32.8960  -30.9520 O.2   155  TYR155     -0.2867
      5  CB         4.8010   31.9000  -33.8180 C.3   155  TYR155      0.0534
      6  CG         3.8220   31.2190  -34.7340 C.ar  155  TYR155     -0.0201
      7  CD1        3.7220   31.5860  -36.0560 C.ar  155  TYR155     -0.0009
      8  CD2        2.9470   30.2340  -34.2520 C.ar  155  TYR155     -0.0009
      9  CE1        2.8020   30.9760  -36.9070 C.ar  155  TYR155      0.0417
     10  CE2        2.0190   29.6180  -35.0910 C.ar  155  TYR155      0.0417
     11  CZ         1.9570   29.9960  -36.4090 C.ar  155  TYR155      0.1957
     12  OH         1.0380   29.4100  -37.2320 O.3   155  TYR155     -0.2866
     13  N         -5.2260   29.9480  -38.8590 N.3   166  LEU166     -0.1231
     14  CA        -4.2530   29.0840  -39.4740 C.3   166  LEU166      0.1693
     15  C         -4.5260   28.9590  -40.9770 C.2   166  LEU166      0.2592
     16  O         -5.5450   29.4030  -41.4850 O.2   166  LEU166     -0.2718
     17  CB        -4.3870   27.6760  -38.8600 C.3   166  LEU166      0.0284
     18  CG        -3.6870   27.5290  -37.5230 C.3   166  LEU166      0.0019
     19  CD1       -3.9760   26.1150  -36.9290 C.3   166  LEU166      0.0001
     20  CD2       -2.1790   27.7480  -37.7340 C.3   166  LEU166      0.0001
     21  N         -3.6330   28.2800  -41.6680 N.am  167  GLY167     -0.1957
     22  CA        -3.8100   28.0580  -43.0830 C.3   167  GLY167      0.1869
     23  C         -3.3380   29.2470  -43.8920 C.2   167  GLY167      0.2309
     24  O         -2.5280   30.0800  -43.4090 O.2   167  GLY167     -0.2863
     25  N         -8.6320   28.1310  -42.6380 N.3   173  LEU173     -0.1245
     26  CA        -9.0660   27.3610  -41.4740 C.3   173  LEU173      0.1561
     27  C         -9.7960   28.3400  -40.5400 C.2   173  LEU173      0.2260
     28  O         -9.2400   28.8040  -39.5250 O.2   173  LEU173     -0.2867
     29  CB        -7.8400   26.7270  -40.8030 C.3   173  LEU173      0.0270
     30  CG        -6.9260   25.8240  -41.6490 C.3   173  LEU173      0.0019
     31  CD1       -5.9830   25.0690  -40.7360 C.3   173  LEU173      0.0001
     32  CD2       -7.7580   24.7950  -42.4560 C.3   173  LEU173      0.0001
     33  N         -5.8710   18.3130  -31.4940 N.3   206  ASP206     -0.1225
     34  CA        -5.0950   19.0460  -32.4950 C.3   206  ASP206      0.1805
     35  C         -4.9500   20.5080  -32.0570 C.2   206  ASP206      0.2598
     36  O         -5.7620   20.9830  -31.2630 O.2   206  ASP206     -0.2718
     37  CB        -5.8770   19.0030  -33.8160 C.3   206  ASP206      0.1424
     38  CG        -5.0950   19.4770  -34.9650 C.2   206  ASP206      0.3668
     39  OD1       -4.0320   18.8780  -35.2180 O.co2 206  ASP206     -0.2456
     40  OD2       -5.5250   20.4450  -35.6680 O.co2 206  ASP206     -0.2456
     41  N         -3.9020   21.1720  -32.5350 N.am  207  THR207     -0.1953
     42  CA        -3.8190   22.6380  -32.4700 C.3   207  THR207      0.1897
     43  C         -4.1220   23.2540  -31.1020 C.2   207  THR207      0.2313
     44  O         -4.7520   24.3280  -31.0010 O.2   207  THR207     -0.2863
     45  CB        -4.6560   23.3120  -33.6050 C.3   207  THR207      0.1794
     46  OG1       -5.9320   22.6550  -33.7810 O.3   207  THR207     -0.2208
     47  CG2       -3.8760   23.2380  -34.8900 C.3   207  THR207      0.0378
     48  N         -2.2460   24.8470  -28.9150 N.3   209  LYS209     -0.1231
     49  CA        -1.6730   26.1780  -28.5840 C.3   209  LYS209      0.1693
     50  C         -2.4400   27.3220  -29.2610 C.2   209  LYS209      0.2592
     51  O         -2.1740   28.4970  -28.9830 O.2   209  LYS209     -0.2718
     52  CB        -0.1660   26.2870  -28.9270 C.3   209  LYS209      0.0285
     53  CG         0.1250   26.5150  -30.4070 C.3   209  LYS209      0.0035
     54  CD         1.6660   26.5530  -30.7020 C.3   209  LYS209      0.0206
     55  CE         1.9160   26.4940  -32.1880 C.3   209  LYS209      0.1093
     56  NZ         3.3720   26.6980  -32.5180 N.3   209  LYS209     -0.1314
     57  N         -3.3360   26.9830  -30.1820 N.am  210  HIS210     -0.1976
     58  CA        -4.0450   27.9880  -30.9670 C.3   210  HIS210      0.1656
     59  C         -5.3610   28.3430  -30.3460 C.2   210  HIS210      0.2291
     60  O         -6.1110   29.1450  -30.9020 O.2   210  HIS210     -0.2864
     61  CB        -4.2790   27.4670  -32.3950 C.3   210  HIS210      0.0771
     62  CG        -3.0130   27.3560  -33.1890 C.ar  210  HIS210      0.0820
     63  ND1       -2.3540   28.4660  -33.6820 N.ar  210  HIS210     -0.2267
     64  CD2       -2.2550   26.2850  -33.5240 C.ar  210  HIS210      0.1154
     65  CE1       -1.2440   28.0820  -34.2820 C.ar  210  HIS210      0.1986
     66  NE2       -1.1780   26.7620  -34.2280 N.ar  210  HIS210     -0.2212
     67  N         -1.8050   18.2740  -28.9320 N.3   230  GLU230     -0.1245
     68  CA        -0.7010   18.6850  -29.8010 C.3   230  GLU230      0.1567
     69  C         -0.3640   20.1360  -29.5370 C.2   230  GLU230      0.2260
     70  O         -1.0800   21.0550  -29.9610 O.2   230  GLU230     -0.2867
     71  CB        -1.0570   18.5060  -31.2820 C.3   230  GLU230      0.0388
     72  CG         0.1640   18.8330  -32.2010 C.3   230  GLU230      0.1160
     73  CD        -0.2060   19.6690  -33.4330 C.2   230  GLU230      0.3649
     74  OE1       -1.2750   20.3030  -33.4410 O.co2 230  GLU230     -0.2457
     75  OE2        0.5930   19.6710  -34.4130 O.co2 230  GLU230     -0.2457
     76  N          2.5430   22.3600  -30.5950 N.3   232  LEU232     -0.1231
     77  CA         3.6330   22.2430  -31.5580 C.3   232  LEU232      0.1693
     78  C          4.7560   23.2480  -31.2050 C.2   232  LEU232      0.2592
     79  O          4.8350   24.3430  -31.7550 O.2   232  LEU232     -0.2718
     80  CB         3.0730   22.4550  -32.9860 C.3   232  LEU232      0.0284
     81  CG         3.7240   21.5810  -34.0660 C.3   232  LEU232      0.0019
     82  CD1        3.2060   22.0430  -35.4460 C.3   232  LEU232      0.0001
     83  CD2        5.2210   21.5890  -33.9970 C.3   232  LEU232      0.0001
     84  N          5.6050   22.8630  -30.2530 N.am  233  ASP233     -0.1974
     85  CA         6.7010   23.7280  -29.8130 C.3   233  ASP233      0.1709
     86  C          7.6860   22.8550  -29.0640 C.2   233  ASP233      0.2293
     87  O          7.2540   22.0410  -28.2320 O.2   233  ASP233     -0.2864
     88  CB         6.1530   24.8560  -28.9150 C.3   233  ASP233      0.1436
     89  CG         7.1050   26.0740  -28.8720 C.2   233  ASP233      0.3671
     90  OD1        8.2070   25.9150  -28.3260 O.co2 233  ASP233     -0.2456
     91  OD2        6.7620   27.1680  -29.3910 O.co2 233  ASP233     -0.2456
     92  N          3.5360   15.2790  -39.7820 N.3   297  ASP297     -0.1239
     93  CA         3.8740   16.7280  -39.8280 C.3   297  ASP297      0.1674
     94  C          5.3900   17.0760  -39.8620 C.2   297  ASP297      0.2266
     95  O          5.7850   18.2770  -39.7910 O.2   297  ASP297     -0.2867
     96  CB         3.2690   17.3790  -38.6300 C.3   297  ASP297      0.1410
     97  CG         1.7470   17.3990  -38.6450 C.2   297  ASP297      0.3668
     98  OD1        1.1210   17.4290  -39.7410 O.co2 297  ASP297     -0.2456
     99  OD2        1.2080   17.4360  -37.5140 O.co2 297  ASP297     -0.2456
@<TRIPOS>BOND
     1    23    24    2
     2    23    22    1
     3    22    21    1
     4    25    26    1
     5    32    30    1
     6    21    15   am
     7    30    29    1
     8    30    31    1
     9    16    15    2
    10    26    29    1
    11    26    27    1
    12    15    14    1
    13    27    28    2
    14    94    93    1
    15    94    95    2
    16    93    92    1
    17    93    96    1
    18    98    97   ar
    19    14    17    1
    20    14    13    1
    21    17    18    1
    22    97    96    1
    23    97    99   ar
    24    20    18    1
    25    18    19    1
    26    12    11    1
    27     9    11   ar
    28     9     7   ar
    29    11    10   ar
    30     7     6   ar
    31    40    38   ar
    32    82    81    1
    33    39    38   ar
    34    10     8   ar
    35    38    37    1
    36    47    45    1
    37     6     8   ar
    38     6     5    1
    39    75    73   ar
    40     1     2    1
    41    65    66   ar
    42    65    63   ar
    43    66    64   ar
    44    81    83    1
    45    81    80    1
    46     5     2    1
    47    37    34    1
    48    46    45    1
    49    63    62   ar
    50    45    42    1
    51    64    62   ar
    52    74    73   ar
    53    73    72    1
    54     2     3    1
    55    62    61    1
    56    80    77    1
    57    41    42    1
    58    41    35   am
    59    56    55    1
    60    34    35    1
    61    34    33    1
    62    42    43    1
    63    61    58    1
    64    72    71    1
    65    55    54    1
    66    35    36    2
    67     3     4    2
    68    79    78    2
    69    77    78    1
    70    77    76    1
    71    71    68    1
    72    78    84   am
    73    43    44    2
    74    58    59    1
    75    58    57    1
    76    60    59    2
    77    54    53    1
    78    53    52    1
    79    84    85    1
    80    57    50   am
    81    70    69    2
    82    85    86    1
    83    85    88    1
    84    68    69    1
    85    68    67    1
    86    91    89   ar
    87    50    51    2
    88    50    49    1
    89    86    87    2
    90    52    49    1
    91    88    89    1
    92    48    49    1
    93    89    90   ar
