@<TRIPOS>MOLECULE
tmp/2gvzA00.pdb
 142 137 0 0 0
SMALL
GASTEIGER

@<TRIPOS>ATOM
      1  N         44.4330  -12.3470   62.1240 N.3    18  PHE18      -0.1241
      2  CA        45.6390  -12.2760   61.3260 C.3    18  PHE18       0.1605
      3  C         46.8560  -11.9840   62.1900 C.2    18  PHE18       0.2264
      4  O         46.8330  -11.1080   63.0500 O.2    18  PHE18      -0.2867
      5  CB        45.5060  -11.2050   60.2570 C.3    18  PHE18       0.0534
      6  CG        44.8970  -11.6970   58.9780 C.ar   18  PHE18      -0.0203
      7  CD1       43.5880  -12.1390   58.9440 C.ar   18  PHE18      -0.0042
      8  CD2       45.6390  -11.6980   57.7930 C.ar   18  PHE18      -0.0042
      9  CE1       43.0220  -12.5720   57.7490 C.ar   18  PHE18      -0.0003
     10  CE2       45.0830  -12.1310   56.5920 C.ar   18  PHE18      -0.0003
     11  CZ        43.7790  -12.5660   56.5710 C.ar   18  PHE18      -0.0000
     12  N         51.3400  -11.6290   62.2610 N.3    20  ASP20      -0.1239
     13  CA        52.5900  -11.4530   61.5360 C.3    20  ASP20       0.1674
     14  C         53.7280  -11.2460   62.5260 C.2    20  ASP20       0.2266
     15  O         53.6230  -10.4630   63.4670 O.2    20  ASP20      -0.2867
     16  CB        52.4960  -10.2530   60.5900 C.3    20  ASP20       0.1410
     17  CG        53.3290  -10.4370   59.3320 C.2    20  ASP20       0.3668
     18  OD1       53.1080  -11.4290   58.6090 O.co2  20  ASP20      -0.2456
     19  OD2       54.2010   -9.5940   59.0620 O.co2  20  ASP20      -0.2456
     20  N         51.4520  -17.8400   54.8970 N.3    62  LEU62      -0.1245
     21  CA        52.2320  -17.1210   53.9060 C.3    62  LEU62       0.1561
     22  C         53.5280  -16.6510   54.5600 C.2    62  LEU62       0.2260
     23  O         53.5640  -15.5760   55.1630 O.2    62  LEU62      -0.2867
     24  CB        51.4390  -15.9070   53.4030 C.3    62  LEU62       0.0270
     25  CG        50.0530  -16.1280   52.7920 C.3    62  LEU62       0.0019
     26  CD1       49.2370  -14.8730   52.9590 C.3    62  LEU62       0.0001
     27  CD2       50.1630  -16.5110   51.3220 C.3    62  LEU62       0.0001
     28  N         53.0780  -14.9230   57.7340 N.3    65  CYS65      -0.1235
     29  CA        51.6780  -14.5600   57.9700 C.3    65  CYS65       0.1677
     30  C         50.7820  -15.7820   58.1380 C.2    65  CYS65       0.2270
     31  O         50.4940  -16.5070   57.1860 O.2    65  CYS65      -0.2867
     32  CB        51.1480  -13.6780   56.8360 C.3    65  CYS65       0.0956
     33  SG        49.7220  -12.6800   57.3300 S.3    65  CYS65      -0.0801
     34  N         47.1360  -16.8230   59.2550 N.3    67  TYR67      -0.1241
     35  CA        45.7820  -16.3530   59.5600 C.3    67  TYR67       0.1605
     36  C         44.7100  -17.4120   59.7010 C.2    67  TYR67       0.2264
     37  O         44.3510  -18.0980   58.7480 O.2    67  TYR67      -0.2867
     38  CB        45.3090  -15.3190   58.5460 C.3    67  TYR67       0.0534
     39  CG        45.1560  -15.8010   57.1310 C.ar   67  TYR67      -0.0201
     40  CD1       46.2500  -15.9200   56.3060 C.ar   67  TYR67      -0.0009
     41  CD2       43.9070  -16.0550   56.5950 C.ar   67  TYR67      -0.0009
     42  CE1       46.1070  -16.2700   54.9730 C.ar   67  TYR67       0.0417
     43  CE2       43.7510  -16.4020   55.2670 C.ar   67  TYR67       0.0417
     44  CZ        44.8550  -16.5050   54.4600 C.ar   67  TYR67       0.1957
     45  OH        44.7210  -16.8200   53.1300 O.3    67  TYR67      -0.2866
     46  N         39.9590  -21.8770   45.2540 N.3   121  LEU121     -0.1245
     47  CA        40.0180  -21.4210   43.8740 C.3   121  LEU121      0.1561
     48  C         40.9550  -22.2870   43.0650 C.2   121  LEU121      0.2260
     49  O         41.9370  -22.8070   43.5780 O.2   121  LEU121     -0.2867
     50  CB        40.4820  -19.9440   43.8080 C.3   121  LEU121      0.0270
     51  CG        39.5110  -18.8130   44.2220 C.3   121  LEU121      0.0019
     52  CD1       40.2540  -17.4940   44.2890 C.3   121  LEU121      0.0001
     53  CD2       38.3640  -18.7240   43.2270 C.3   121  LEU121      0.0001
     54  N         40.9030  -21.1060   51.5640 N.3   129  ASP129     -0.1225
     55  CA        41.1050  -19.6800   51.7900 C.3   129  ASP129      0.1805
     56  C         39.7840  -18.9460   52.0950 C.2   129  ASP129      0.2598
     57  O         38.6950  -19.5310   52.0200 O.2   129  ASP129     -0.2718
     58  CB        41.7780  -19.0630   50.5550 C.3   129  ASP129      0.1424
     59  CG        42.8670  -18.0810   50.9140 C.2   129  ASP129      0.3668
     60  OD1       42.6300  -17.2290   51.7920 O.co2 129  ASP129     -0.2456
     61  OD2       43.9560  -18.1530   50.3150 O.co2 129  ASP129     -0.2456
     62  N         39.8940  -17.6660   52.4480 N.am  130  VAL130     -0.1966
     63  CA        38.7430  -16.8280   52.7570 C.3   130  VAL130      0.1727
     64  C         38.7660  -15.5610   51.8900 C.2   130  VAL130      0.2616
     65  O         39.8000  -14.9540   51.6990 O.2   130  VAL130     -0.2715
     66  CB        38.7380  -16.4390   54.2540 C.3   130  VAL130      0.0290
     67  CG1       38.4080  -17.6370   55.1010 C.3   130  VAL130      0.0023
     68  CG2       40.0790  -15.8880   54.6560 C.3   130  VAL130      0.0023
     69  N         37.6120  -15.1600   51.3740 N.am  131  TRP131     -0.1960
     70  CA        37.5280  -13.9830   50.5190 C.3   131  TRP131      0.1771
     71  C         36.3160  -13.1000   50.7810 C.2   131  TRP131      0.2620
     72  O         35.1820  -13.5600   50.7670 O.2   131  TRP131     -0.2715
     73  CB        37.5130  -14.4180   49.0580 C.3   131  TRP131      0.0590
     74  CG        38.7290  -15.1650   48.6220 C.ar  131  TRP131      0.0006
     75  CD1       39.9500  -14.6440   48.3430 C.ar  131  TRP131      0.0946
     76  CD2       38.8290  -16.5690   48.3780 C.ar  131  TRP131      0.0152
     77  NE1       40.8110  -15.6320   47.9320 N.ar  131  TRP131     -0.2442
     78  CE2       40.1470  -16.8270   47.9450 C.ar  131  TRP131      0.0810
     79  CE3       37.9340  -17.6350   48.4810 C.ar  131  TRP131      0.0012
     80  CZ2       40.5920  -18.1120   47.6140 C.ar  131  TRP131      0.0191
     81  CZ3       38.3720  -18.9160   48.1520 C.ar  131  TRP131      0.0001
     82  CH2       39.6930  -19.1420   47.7230 C.ar  131  TRP131      0.0015
     83  N         36.5770  -11.8200   51.0040 N.am  132  SER132     -0.1936
     84  CA        35.5310  -10.8410   51.2560 C.3   132  SER132      0.2055
     85  C         36.2060   -9.5460   51.6770 C.2   132  SER132      0.2643
     86  O         37.3020   -9.5600   52.2310 O.2   132  SER132     -0.2714
     87  CB        34.6210  -11.2950   52.3860 C.3   132  SER132      0.2130
     88  OG        35.1580  -10.9120   53.6410 O.3   132  SER132     -0.2179
     89  N         35.5560   -8.4240   51.4220 N.am  133  ASN133     -0.1971
     90  CA        36.1560   -7.1740   51.8000 C.3   133  ASN133      0.1688
     91  C         36.4820   -7.2180   53.2850 C.2   133  ASN133      0.2292
     92  O         37.5490   -6.8010   53.7040 O.2   133  ASN133     -0.2864
     93  CB        35.2280   -6.0020   51.4400 C.3   133  ASN133      0.1181
     94  CG        35.1630   -5.7470   49.9330 C.2   133  ASN133      0.2629
     95  OD1       36.1340   -5.9910   49.2130 O.2   133  ASN133     -0.2716
     96  ND2       34.0200   -5.2380   49.4570 N.am  133  ASN133     -0.0877
     97  N         37.3950   -9.5730   54.9220 N.3   135  VAL135     -0.1231
     98  CA        38.6320  -10.3350   55.0620 C.3   135  VAL135      0.1692
     99  C         39.8040   -9.4800   54.6480 C.2   135  VAL135      0.2592
    100  O         40.9050   -9.6500   55.1580 O.2   135  VAL135     -0.2718
    101  CB        38.6320  -11.6000   54.1960 C.3   135  VAL135      0.0266
    102  CG1       39.9140  -12.3770   54.4280 C.3   135  VAL135      0.0020
    103  CG2       37.4190  -12.4460   54.5240 C.3   135  VAL135      0.0020
    104  N         39.5670   -8.5620   53.7150 N.am  136  THR136     -0.1953
    105  CA        40.6370   -7.6850   53.2560 C.3   136  THR136      0.1897
    106  C         40.9660   -6.7850   54.4260 C.2   136  THR136      0.2313
    107  O         42.1190   -6.5190   54.7330 O.2   136  THR136     -0.2863
    108  CB        40.1930   -6.8170   52.0700 C.3   136  THR136      0.1794
    109  OG1       39.6910   -7.6560   51.0310 O.3   136  THR136     -0.2208
    110  CG2       41.3440   -6.0300   51.5240 C.3   136  THR136      0.0378
    111  N         43.0760   -7.9850   57.4160 N.3   139  ASN139     -0.1225
    112  CA        44.4860   -8.0940   57.0160 C.3   139  ASN139      0.1785
    113  C         45.1990   -6.8040   57.3840 C.2   139  ASN139      0.2597
    114  O         46.3000   -6.8230   57.9330 O.2   139  ASN139     -0.2718
    115  CB        44.5730   -8.3150   55.5020 C.3   139  ASN139      0.1169
    116  CG        45.9850   -8.2060   54.9660 C.2   139  ASN139      0.2627
    117  OD1       46.1940   -7.8750   53.7890 O.2   139  ASN139     -0.2716
    118  ND2       46.9640   -8.4880   55.8170 N.am  139  ASN139     -0.0877
    119  N         44.5490   -5.6870   57.0660 N.am  140  HIS140     -0.1975
    120  CA        45.0800   -4.3620   57.3520 C.3   140  HIS140      0.1656
    121  C         45.0110   -4.1030   58.8520 C.2   140  HIS140      0.2291
    122  O         45.7600   -3.2930   59.4010 O.2   140  HIS140     -0.2864
    123  CB        44.2950   -3.3340   56.5470 C.3   140  HIS140      0.0771
    124  CG        44.5660   -3.4170   55.0750 C.ar  140  HIS140      0.0820
    125  ND1       45.6940   -2.8740   54.4980 N.ar  140  HIS140     -0.2267
    126  CD2       43.9230   -4.0790   54.0830 C.ar  140  HIS140      0.1154
    127  CE1       45.7340   -3.2020   53.2160 C.ar  140  HIS140      0.1986
    128  NE2       44.6710   -3.9350   52.9390 N.ar  140  HIS140     -0.2212
    129  N         45.7500   -6.3600   60.8250 N.3   142  GLU142     -0.1231
    130  CA        46.9800   -7.0210   61.2190 C.3   142  GLU142      0.1699
    131  C         48.0980   -6.0350   60.9470 C.2   142  GLU142      0.2592
    132  O         48.9980   -5.8630   61.7580 O.2   142  GLU142     -0.2718
    133  CB        47.1980   -8.2910   60.3840 C.3   142  GLU142      0.0402
    134  CG        48.6440   -8.8220   60.3680 C.3   142  GLU142      0.1161
    135  CD        49.4580   -8.3300   59.1680 C.2   142  GLU142      0.3649
    136  OE1       49.1020   -8.6820   58.0230 O.co2 142  GLU142     -0.2457
    137  OE2       50.4540   -7.5980   59.3640 O.co2 142  GLU142     -0.2457
    138  N         48.0150   -5.3890   59.7890 N.am  143  ALA143     -0.1980
    139  CA        48.9990   -4.4080   59.3680 C.3   143  ALA143      0.1597
    140  C         48.8130   -3.0910   60.1170 C.2   143  ALA143      0.2287
    141  O         49.1940   -2.0300   59.6270 O.2   143  ALA143     -0.2864
    142  CB        48.8890   -4.1770   57.8690 C.3   143  ALA143      0.0319
@<TRIPOS>BOND
     1    48    49    2
     2    48    47    1
     3    53    51    1
     4    50    47    1
     5    50    51    1
     6    47    46    1
     7    51    52    1
     8    80    82   ar
     9    80    78   ar
    10    82    81   ar
    11    77    78   ar
    12    77    75   ar
    13    78    76   ar
    14    81    79   ar
    15    75    74   ar
    16    76    79   ar
    17    76    74   ar
    18    74    73    1
    19    73    70    1
    20    95    94    2
    21    96    94   am
    22    94    93    1
    23    61    59   ar
    24    70    71    1
    25    70    69    1
    26    58    59    1
    27    58    55    1
    28    72    71    2
    29    71    83   am
    30    59    60   ar
    31    83    84    1
    32   109   108    1
    33    84    85    1
    34    84    87    1
    35    27    25    1
    36    69    64   am
    37    89    85   am
    38    89    90    1
    39    93    90    1
    40   110   108    1
    41    54    55    1
    42    85    86    2
    43    65    64    2
    44    55    56    1
    45    90    91    1
    46    64    63    1
    47    57    56    2
    48   108   105    1
    49    56    62   am
    50    87    88    1
    51    62    63    1
    52    63    66    1
    53    25    26    1
    54    25    24    1
    55   128   127   ar
    56   128   126   ar
    57    45    44    1
    58   127   125   ar
    59   105   104    1
    60   105   106    1
    61    91    92    2
    62    24    21    1
    63   104    99   am
    64   117   116    2
    65    21    22    1
    66    21    20    1
    67   126   124   ar
    68   101   102    1
    69   101   103    1
    70   101    98    1
    71    66    68    1
    72    66    67    1
    73   106   107    2
    74    44    42   ar
    75    44    43   ar
    76   125   124   ar
    77    22    23    2
    78    99    98    1
    79    99   100    2
    80    97    98    1
    81   116   115    1
    82   116   118   am
    83    42    40   ar
    84   124   123    1
    85    43    41   ar
    86   115   112    1
    87    40    39   ar
    88   123   120    1
    89    11    10   ar
    90    11     9   ar
    91    10     8   ar
    92    41    39   ar
    93    32    33    1
    94    32    29    1
    95   112   113    1
    96   112   111    1
    97   119   120    1
    98   119   113   am
    99    39    38    1
   100    31    30    2
   101   120   121    1
   102   113   114    2
   103    28    29    1
   104     9     7   ar
   105     8     6   ar
   106   142   139    1
   107    29    30    1
   108   136   135   ar
   109    38    35    1
   110    18    17   ar
   111    37    36    2
   112   121   122    2
   113     7     6   ar
   114     6     5    1
   115    19    17   ar
   116   135   137   ar
   117   135   134    1
   118    34    35    1
   119    17    16    1
   120   139   138    1
   121   139   140    1
   122    35    36    1
   123   141   140    2
   124   138   131   am
   125     5     2    1
   126   134   133    1
   127   133   130    1
   128    16    13    1
   129   129   130    1
   130   131   130    1
   131   131   132    2
   132     2     1    1
   133     2     3    1
   134    13    12    1
   135    13    14    1
   136     3     4    2
   137    14    15    2
