@<TRIPOS>MOLECULE
tmp/2gvzA01.pdb
 108 101 0 0 0
SMALL
GASTEIGER

@<TRIPOS>ATOM
      1  N         51.3400  -11.6290   62.2610 N.3    20  ASP20      -0.1225
      2  CA        52.5900  -11.4530   61.5360 C.3    20  ASP20       0.1805
      3  C         53.7280  -11.2460   62.5260 C.2    20  ASP20       0.2597
      4  O         53.6230  -10.4630   63.4670 O.2    20  ASP20      -0.2718
      5  CB        52.4960  -10.2530   60.5900 C.3    20  ASP20       0.1424
      6  CG        53.3290  -10.4370   59.3320 C.2    20  ASP20       0.3668
      7  OD1       53.1080  -11.4290   58.6090 O.co2  20  ASP20      -0.2456
      8  OD2       54.2010   -9.5940   59.0620 O.co2  20  ASP20      -0.2456
      9  N         54.8170  -11.9680   62.3100 N.am   21  ILE21      -0.1980
     10  CA        55.9860  -11.8780   63.1750 C.3    21  ILE21       0.1595
     11  C         56.6180  -10.5020   63.0030 C.2    21  ILE21       0.2287
     12  O         57.4120  -10.2950   62.0880 O.2    21  ILE21      -0.2864
     13  CB        57.0500  -12.9470   62.7920 C.3    21  ILE21       0.0276
     14  CG1       56.3740  -14.2360   62.3120 C.3    21  ILE21       0.0022
     15  CG2       57.9450  -13.2440   63.9900 C.3    21  ILE21       0.0022
     16  CD1       55.5250  -14.9280   63.3600 C.3    21  ILE21       0.0001
     17  N         58.9130   -7.5740   62.7000 N.3    23  GLY23      -0.1210
     18  CA        60.3570   -7.4560   62.5600 C.3    23  GLY23       0.1956
     19  C         61.1310   -8.6830   62.1200 C.2    23  GLY23       0.2612
     20  O         62.3570   -8.6780   62.1200 O.2    23  GLY23      -0.2717
     21  N         60.4250   -9.7300   61.7240 N.am   24  PHE24      -0.1962
     22  CA        61.0630  -10.9690   61.3050 C.3    24  PHE24       0.1771
     23  C         62.2940  -10.8850   60.3970 C.2    24  PHE24       0.2620
     24  O         63.3240  -11.4830   60.6990 O.2    24  PHE24      -0.2715
     25  CB        60.0460  -11.8830   60.6300 C.3    24  PHE24       0.0574
     26  CG        60.5710  -13.2610   60.3750 C.ar   24  PHE24      -0.0200
     27  CD1       60.8010  -14.1270   61.4380 C.ar   24  PHE24      -0.0042
     28  CD2       60.8970  -13.6760   59.0870 C.ar   24  PHE24      -0.0042
     29  CE1       61.3530  -15.3840   61.2280 C.ar   24  PHE24      -0.0003
     30  CE2       61.4480  -14.9310   58.8630 C.ar   24  PHE24      -0.0003
     31  CZ        61.6780  -15.7870   59.9350 C.ar   24  PHE24      -0.0000
     32  N         62.1920  -10.1730   59.2810 N.am   25  THR25      -0.1951
     33  CA        63.3150  -10.0810   58.3610 C.3    25  THR25       0.1897
     34  C         64.5960   -9.6860   59.0810 C.2    25  THR25       0.2313
     35  O         65.6960  -10.0140   58.6370 O.2    25  THR25      -0.2863
     36  CB        63.0300   -9.0780   57.2530 C.3    25  THR25       0.1794
     37  OG1       61.6790   -9.2380   56.8140 O.3    25  THR25      -0.2208
     38  CG2       63.9620   -9.3200   56.0700 C.3    25  THR25       0.0378
     39  N         66.1490  -12.6370   60.2880 N.3    28  ALA28      -0.1231
     40  CA        66.7420  -13.3210   59.1430 C.3    28  ALA28       0.1694
     41  C         68.2180  -13.0640   58.8530 C.2    28  ALA28       0.2592
     42  O         68.9820  -14.0090   58.6810 O.2    28  ALA28      -0.2718
     43  CB        65.9220  -13.0210   57.8960 C.3    28  ALA28       0.0304
     44  N         68.6230  -11.8020   58.7780 N.am   29  SER29      -0.1952
     45  CA        70.0180  -11.4880   58.4810 C.3    29  SER29       0.1924
     46  C         70.9740  -11.9480   59.5740 C.2    29  SER29       0.2314
     47  O         72.1800  -11.7310   59.4800 O.2    29  SER29      -0.2863
     48  CB        70.1910   -9.9860   58.2530 C.3    29  SER29       0.2116
     49  OG        69.9690   -9.2670   59.4460 O.3    29  SER29      -0.2180
     50  N         69.2660  -20.0480   57.4160 N.3    33  ALA33      -0.1245
     51  CA        67.9880  -20.2520   56.7570 C.3    33  ALA33       0.1562
     52  C         67.2660  -21.4170   57.4070 C.2    33  ALA33       0.2260
     53  O         66.0510  -21.4020   57.5750 O.2    33  ALA33      -0.2867
     54  CB        68.2050  -20.5240   55.2790 C.3    33  ALA33       0.0290
     55  N         65.8000  -20.7480   60.8350 N.3    36  LEU36      -0.1231
     56  CA        64.6780  -19.8570   60.6270 C.3    36  LEU36       0.1693
     57  C         63.4800  -20.6760   60.1800 C.2    36  LEU36       0.2591
     58  O         62.4370  -20.6550   60.8240 O.2    36  LEU36      -0.2718
     59  CB        65.0190  -18.7850   59.5920 C.3    36  LEU36       0.0284
     60  CG        65.7960  -17.5660   60.1110 C.3    36  LEU36       0.0019
     61  CD1       66.1100  -16.6380   58.9530 C.3    36  LEU36       0.0001
     62  CD2       64.9810  -16.8260   61.1630 C.3    36  LEU36       0.0001
     63  N         63.6290  -21.4120   59.0850 N.am   37  VAL37      -0.1980
     64  CA        62.5350  -22.2420   58.5890 C.3    37  VAL37       0.1595
     65  C         62.0650  -23.1360   59.7290 C.2    37  VAL37       0.2287
     66  O         60.9220  -23.5780   59.7560 O.2    37  VAL37      -0.2864
     67  CB        62.9870  -23.1370   57.4060 C.3    37  VAL37       0.0276
     68  CG1       61.8460  -24.0210   56.9580 C.3    37  VAL37       0.0022
     69  CG2       63.4550  -22.2840   56.2520 C.3    37  VAL37       0.0022
     70  N         60.4110  -20.8650   62.5830 N.3    40  LEU40      -0.1245
     71  CA        59.1560  -20.5350   61.9290 C.3    40  LEU40       0.1561
     72  C         58.2010  -21.6990   62.1070 C.2    40  LEU40       0.2260
     73  O         57.1210  -21.5420   62.6650 O.2    40  LEU40      -0.2867
     74  CB        59.4130  -20.3050   60.4450 C.3    40  LEU40       0.0270
     75  CG        58.3040  -19.6600   59.6370 C.3    40  LEU40       0.0019
     76  CD1       58.0040  -18.2770   60.1990 C.3    40  LEU40       0.0001
     77  CD2       58.7370  -19.5750   58.1810 C.3    40  LEU40       0.0001
     78  N         51.4520  -17.8400   54.8970 N.3    62  LEU62      -0.1231
     79  CA        52.2320  -17.1210   53.9060 C.3    62  LEU62       0.1693
     80  C         53.5280  -16.6510   54.5600 C.2    62  LEU62       0.2593
     81  O         53.5640  -15.5760   55.1630 O.2    62  LEU62      -0.2718
     82  CB        51.4390  -15.9070   53.4030 C.3    62  LEU62       0.0284
     83  CG        50.0530  -16.1280   52.7920 C.3    62  LEU62       0.0019
     84  CD1       49.2370  -14.8730   52.9590 C.3    62  LEU62       0.0001
     85  CD2       50.1630  -16.5110   51.3220 C.3    62  LEU62       0.0001
     86  N         54.5890  -17.4480   54.4510 N.am   63  GLY63      -0.1942
     87  CA        55.8480  -17.0510   55.0640 C.3    63  GLY63       0.2014
     88  C         55.7040  -16.8390   56.5640 C.2    63  GLY63       0.2638
     89  O         55.7250  -17.8060   57.3270 O.2    63  GLY63      -0.2714
     90  N         55.5570  -15.5880   56.9920 N.am   64  ASP64      -0.1971
     91  CA        55.3970  -15.2960   58.4050 C.3    64  ASP64       0.1709
     92  C         53.9580  -14.9120   58.7320 C.2    64  ASP64       0.2293
     93  O         53.6430  -14.6050   59.8820 O.2    64  ASP64      -0.2864
     94  CB        56.3170  -14.1560   58.8300 C.3    64  ASP64       0.1436
     95  CG        55.9220  -12.8230   58.2120 C.2    64  ASP64       0.3671
     96  OD1       55.9840  -12.7060   56.9750 O.co2  64  ASP64      -0.2456
     97  OD2       55.5480  -11.8950   58.9580 O.co2  64  ASP64      -0.2456
     98  N         51.7090   -9.4540   65.7250 N.3   108  ARG108     -0.1245
     99  CA        51.0200   -8.2130   65.4820 C.3   108  ARG108      0.1563
    100  C         49.6370   -8.6490   65.0810 C.2   108  ARG108      0.2260
    101  O         49.2280   -8.5500   63.9290 O.2   108  ARG108     -0.2867
    102  CB        51.6970   -7.4420   64.3540 C.3   108  ARG108      0.0307
    103  CG        51.1270   -6.0650   64.0940 C.3   108  ARG108      0.0489
    104  CD        52.1440   -5.2270   63.3460 C.3   108  ARG108      0.2205
    105  NE        52.6990   -5.9620   62.2100 N.pl3 108  ARG108     -0.0865
    106  CZ        53.6910   -5.5210   61.4400 C.cat 108  ARG108      0.5346
    107  NH1       54.2460   -4.3370   61.6840 N.pl3 108  ARG108      0.1354
    108  NH2       54.1290   -6.2650   60.4280 N.pl3 108  ARG108      0.1354
@<TRIPOS>BOND
     1    85    83    1
     2    83    84    1
     3    83    82    1
     4    82    79    1
     5    79    80    1
     6    79    78    1
     7    86    80   am
     8    86    87    1
     9    80    81    2
    10    87    88    1
    11    54    51    1
    12    38    36    1
    13    69    67    1
    14    88    90   am
    15    88    89    2
    16    51    52    1
    17    51    50    1
    18    37    36    1
    19    68    67    1
    20    96    95   ar
    21    90    91    1
    22    36    33    1
    23    67    64    1
    24    52    53    2
    25    43    40    1
    26    77    75    1
    27    95    94    1
    28    95    97   ar
    29    48    45    1
    30    48    49    1
    31    33    34    1
    32    33    32    1
    33    91    92    1
    34    91    94    1
    35    45    44    1
    36    45    46    1
    37    64    63    1
    38    64    65    1
    39     7     6   ar
    40    35    34    2
    41    42    41    2
    42    92    93    2
    43    44    41   am
    44    41    40    1
    45    30    28   ar
    46    30    31   ar
    47    61    60    1
    48     8     6   ar
    49    63    57   am
    50    28    26   ar
    51    40    39    1
    52    32    23   am
    53     6     5    1
    54    47    46    2
    55    59    60    1
    56    59    56    1
    57    75    76    1
    58    75    74    1
    59    65    66    2
    60    31    29   ar
    61    60    62    1
    62    57    56    1
    63    57    58    2
    64    26    25    1
    65    26    27   ar
    66    23    24    2
    67    23    22    1
    68   108   106    1
    69    74    71    1
    70     5     2    1
    71    56    55    1
    72    25    22    1
    73    29    27   ar
    74    22    21    1
    75   106   107    1
    76   106   105    2
    77     2     1    1
    78     2     3    1
    79    21    19   am
    80    71    72    1
    81    71    70    1
    82    12    11    2
    83    72    73    2
    84    20    19    2
    85    19    18    1
    86   105   104    1
    87     9     3   am
    88     9    10    1
    89    14    13    1
    90    14    16    1
    91     3     4    2
    92    18    17    1
    93    13    10    1
    94    13    15    1
    95    11    10    1
    96   104   103    1
    97   101   100    2
    98   103   102    1
    99   102    99    1
   100   100    99    1
   101    99    98    1
