@<TRIPOS>MOLECULE
tmp/2gwcF00.pdb
 174 166 0 0 0
SMALL
GASTEIGER

@<TRIPOS>ATOM
      1  N         36.2370   12.1930  -18.2210 N.3    30  GLU30      -0.1245
      2  CA        36.2640   13.2610  -17.2170 C.3    30  GLU30       0.1567
      3  C         35.5650   14.4850  -17.7950 C.2    30  GLU30       0.2260
      4  O         35.7440   14.8050  -18.9560 O.2    30  GLU30      -0.2867
      5  CB        37.6890   13.6890  -16.8250 C.3    30  GLU30       0.0388
      6  CG        38.7270   12.5880  -16.8190 C.3    30  GLU30       0.1160
      7  CD        40.1180   13.0660  -16.3250 C.2    30  GLU30       0.3649
      8  OE1       40.2600   14.2740  -15.9510 O.co2  30  GLU30      -0.2457
      9  OE2       41.0590   12.2090  -16.3200 O.co2  30  GLU30      -0.2457
     10  N         34.0750   18.6450  -16.4560 N.3    32  GLU32      -0.1245
     11  CA        33.9590   19.6950  -15.4400 C.3    32  GLU32       0.1567
     12  C         32.7350   20.5730  -15.7560 C.2    32  GLU32       0.2260
     13  O         32.4040   20.7590  -16.9330 O.2    32  GLU32      -0.2867
     14  CB        35.2390   20.5350  -15.4600 C.3    32  GLU32       0.0388
     15  CG        36.5970   19.6980  -15.4940 C.3    32  GLU32       0.1160
     16  CD        37.7700   20.5240  -15.9150 C.2    32  GLU32       0.3649
     17  OE1       37.5950   21.4660  -16.6810 O.co2  32  GLU32      -0.2457
     18  OE2       38.8950   20.2320  -15.4890 O.co2  32  GLU32      -0.2457
     19  N         38.1290   22.0450   -9.5550 N.3    82  GLU82      -0.1231
     20  CA        39.1060   22.8410  -10.2850 C.3    82  GLU82       0.1684
     21  C         39.3300   24.1410   -9.5190 C.2    82  GLU82       0.2434
     22  O         38.6090   24.4160   -8.5370 O.2    82  GLU82      -0.2733
     23  CB        38.6110   23.1100  -11.7020 C.3    82  GLU82       0.0402
     24  CG        38.6320   21.8770  -12.6150 C.3    82  GLU82       0.1161
     25  CD        40.0550   21.4310  -12.9570 C.2    82  GLU82       0.3649
     26  OE1       40.9550   22.2870  -12.9740 O.co2  82  GLU82      -0.2457
     27  OE2       40.2800   20.2380  -13.2250 O.co2  82  GLU82      -0.2457
     28  N         40.3580   24.9300   -9.9180 N.am   83  PRO83      -0.2729
     29  CA        40.7000   26.1240   -9.1290 C.3    83  PRO83       0.1401
     30  C         39.5590   27.1350   -8.9140 C.2    83  PRO83       0.2269
     31  O         39.5240   27.7720   -7.8770 O.2    83  PRO83      -0.2865
     32  CB        41.8850   26.7280   -9.8990 C.3    83  PRO83       0.0296
     33  CG        42.4560   25.5770  -10.6390 C.3    83  PRO83       0.0237
     34  CD        41.2950   24.7560  -11.0440 C.3    83  PRO83       0.0939
     35  N         34.9970   24.6360  -10.3770 N.3    86  GLN86      -0.1245
     36  CA        34.3930   23.7840  -11.4000 C.3    86  GLN86       0.1566
     37  C         34.3470   22.3470  -10.8780 C.2    86  GLN86       0.2260
     38  O         35.3300   21.8230  -10.3400 O.2    86  GLN86      -0.2867
     39  CB        35.1120   23.8380  -12.7570 C.3    86  GLN86       0.0367
     40  CG        35.3860   25.2440  -13.3430 C.3    86  GLN86       0.0905
     41  CD        36.7890   25.7510  -13.0420 C.2    86  GLN86       0.2608
     42  OE1       37.1300   25.9350  -11.8880 O.2    86  GLN86      -0.2717
     43  NE2       37.6100   25.9790  -14.0890 N.am   86  GLN86      -0.0878
     44  N         34.0510   18.5100  -11.0090 N.3    88  GLU88      -0.1245
     45  CA        34.5720   17.5300  -11.9720 C.3    88  GLU88       0.1567
     46  C         34.2740   16.0770  -11.5720 C.2    88  GLU88       0.2260
     47  O         34.4630   15.6890  -10.4220 O.2    88  GLU88      -0.2867
     48  CB        36.0930   17.7200  -12.1860 C.3    88  GLU88       0.0388
     49  CG        36.7600   16.5770  -12.9690 C.3    88  GLU88       0.1160
     50  CD        38.2770   16.7090  -13.0530 C.2    88  GLU88       0.3649
     51  OE1       38.7640   17.8310  -13.3800 O.co2  88  GLU88      -0.2457
     52  OE2       38.9890   15.6760  -12.8380 O.co2  88  GLU88      -0.2457
     53  N         47.9290   23.2860   -3.9280 N.3   140  ARG140     -0.1231
     54  CA        48.5740   23.1450   -5.2280 C.3   140  ARG140      0.1694
     55  C         48.1620   24.2800   -6.1690 C.2   140  ARG140      0.2592
     56  O         48.9960   24.7830   -6.9030 O.2   140  ARG140     -0.2718
     57  CB        48.3640   21.7740   -5.8730 C.3   140  ARG140      0.0321
     58  CG        46.9790   21.5020   -6.3850 C.3   140  ARG140      0.0489
     59  CD        46.8180   20.0270   -6.7370 C.3   140  ARG140      0.2205
     60  NE        47.2770   19.7770   -8.1130 N.pl3 140  ARG140     -0.0865
     61  CZ        47.6550   18.5790   -8.5910 C.cat 140  ARG140      0.5346
     62  NH1       47.6610   17.4850   -7.7990 N.pl3 140  ARG140      0.1354
     63  NH2       48.0650   18.4690   -9.8650 N.pl3 140  ARG140      0.1354
     64  N         46.8920   24.6890   -6.1040 N.am  141  TYR141     -0.1976
     65  CA        46.3870   25.7810   -6.9140 C.3   141  TYR141      0.1639
     66  C         46.9230   27.1320   -6.4930 C.2   141  TYR141      0.2290
     67  O         47.0080   28.0180   -7.3210 O.2   141  TYR141     -0.2864
     68  CB        44.8530   25.8290   -6.9080 C.3   141  TYR141      0.0560
     69  CG        44.1810   24.6180   -7.4790 C.ar  141  TYR141     -0.0198
     70  CD1       44.8350   23.7680   -8.3640 C.ar  141  TYR141     -0.0009
     71  CD2       42.8490   24.3350   -7.1450 C.ar  141  TYR141     -0.0009
     72  CE1       44.1900   22.6480   -8.8840 C.ar  141  TYR141      0.0417
     73  CE2       42.1870   23.2250   -7.6700 C.ar  141  TYR141      0.0417
     74  CZ        42.8670   22.3850   -8.5190 C.ar  141  TYR141      0.1957
     75  OH        42.2050   21.3000   -9.0140 O.3   141  TYR141     -0.2866
     76  N         37.4490   28.0010  -17.1860 N.3   158  THR158     -0.1203
     77  CA        37.2570   27.0330  -18.2820 C.3   158  THR158      0.1994
     78  C         36.7460   25.7050  -17.7800 C.2   158  THR158      0.2618
     79  O         37.0250   25.3300  -16.6500 O.2   158  THR158     -0.2717
     80  CB        38.5310   26.8210  -19.1510 C.3   158  THR158      0.1784
     81  OG1       39.6420   26.3190  -18.3630 O.3   158  THR158     -0.2211
     82  CG2       38.9230   28.1120  -19.8670 C.3   158  THR158      0.0376
     83  N         35.9850   25.0060  -18.6440 N.am  159  CYS159     -0.1955
     84  CA        35.5500   23.6270  -18.4170 C.3   159  CYS159      0.1843
     85  C         35.7630   22.7820  -19.6770 C.2   159  CYS159      0.2626
     86  O         35.4730   23.2190  -20.7940 O.2   159  CYS159     -0.2714
     87  CB        34.0630   23.5470  -18.0600 C.3   159  CYS159      0.0997
     88  SG        33.6490   24.0310  -16.4240 S.3   159  CYS159     -0.0797
     89  N         36.2010   21.5460  -19.4600 N.am  160  THR160     -0.1950
     90  CA        36.4830   20.5800  -20.5020 C.3   160  THR160      0.1897
     91  C         35.6830   19.2760  -20.3340 C.2   160  THR160      0.2313
     92  O         35.2110   18.9390  -19.2540 O.2   160  THR160     -0.2863
     93  CB        37.9950   20.2210  -20.5060 C.3   160  THR160      0.1794
     94  OG1       38.3480   19.5160  -21.7030 O.3   160  THR160     -0.2208
     95  CG2       38.3760   19.3800  -19.2930 C.3   160  THR160      0.0378
     96  N         36.9640   15.4450  -21.3390 N.3   162  GLN162     -0.1245
     97  CA        38.0760   14.6600  -21.8900 C.3   162  GLN162      0.1566
     98  C         37.8430   13.1690  -21.8200 C.2   162  GLN162      0.2260
     99  O         36.9360   12.7090  -21.1350 O.2   162  GLN162     -0.2867
    100  CB        39.4150   15.0460  -21.2730 C.3   162  GLN162      0.0367
    101  CG        39.5390   14.8560  -19.8170 C.3   162  GLN162      0.0905
    102  CD        40.9690   15.0660  -19.3720 C.2   162  GLN162      0.2608
    103  OE1       41.4130   16.2270  -19.1770 O.2   162  GLN162     -0.2717
    104  NE2       41.7360   13.9450  -19.2680 N.am  162  GLN162     -0.0878
    105  N         38.0170   29.1290  -24.7600 N.3   206  ARG206     -0.1245
    106  CA        38.7230   28.1500  -23.9560 C.3   206  ARG206      0.1563
    107  C         39.9810   27.6330  -24.6550 C.2   206  ARG206      0.2260
    108  O         41.0630   27.6110  -24.0590 O.2   206  ARG206     -0.2867
    109  CB        37.7860   26.9880  -23.6500 C.3   206  ARG206      0.0307
    110  CG        38.4530   25.8910  -22.8940 C.3   206  ARG206      0.0489
    111  CD        37.5700   24.7040  -22.6350 C.3   206  ARG206      0.2205
    112  NE        38.4240   23.5480  -22.4670 N.pl3 206  ARG206     -0.0865
    113  CZ        38.9540   22.8510  -23.4610 C.cat 206  ARG206      0.5346
    114  NH1       38.6330   23.1000  -24.7130 N.pl3 206  ARG206      0.1354
    115  NH2       39.7660   21.8410  -23.1850 N.pl3 206  ARG206      0.1354
    116  N         44.3270   28.2970  -23.9200 N.3   210  TRP210     -0.1241
    117  CA        45.4140   27.3370  -23.8450 C.3   210  TRP210      0.1605
    118  C         46.6490   27.6740  -24.6960 C.2   210  TRP210      0.2264
    119  O         47.7020   27.0620  -24.4990 O.2   210  TRP210     -0.2867
    120  CB        44.9270   25.9270  -24.1830 C.3   210  TRP210      0.0550
    121  CG        44.3170   25.2340  -23.0220 C.ar  210  TRP210      0.0003
    122  CD1       43.0010   24.9060  -22.8620 C.ar  210  TRP210      0.0946
    123  CD2       44.9860   24.8080  -21.8300 C.ar  210  TRP210      0.0152
    124  NE1       42.8270   24.2660  -21.6630 N.ar  210  TRP210     -0.2442
    125  CE2       44.0290   24.1900  -21.0140 C.ar  210  TRP210      0.0810
    126  CE3       46.3110   24.8480  -21.3950 C.ar  210  TRP210      0.0012
    127  CZ2       44.3560   23.6290  -19.7690 C.ar  210  TRP210      0.0191
    128  CZ3       46.6300   24.3010  -20.1710 C.ar  210  TRP210      0.0001
    129  CH2       45.6650   23.7030  -19.3700 C.ar  210  TRP210      0.0015
    130  N         55.8280   22.1480  -10.7930 N.3   242  TYR242     -0.1241
    131  CA        54.9960   23.0390  -10.0110 C.3   242  TYR242      0.1605
    132  C         55.2770   22.8630   -8.5180 C.2   242  TYR242      0.2264
    133  O         55.5200   23.8140   -7.7880 O.2   242  TYR242     -0.2867
    134  CB        53.5090   22.7830  -10.2530 C.3   242  TYR242      0.0534
    135  CG        52.9140   23.3140  -11.5390 C.ar  242  TYR242     -0.0201
    136  CD1       53.4910   24.3630  -12.2340 C.ar  242  TYR242     -0.0009
    137  CD2       51.7120   22.8080  -12.0130 C.ar  242  TYR242     -0.0009
    138  CE1       52.9230   24.8530  -13.3960 C.ar  242  TYR242      0.0417
    139  CE2       51.1340   23.2850  -13.2040 C.ar  242  TYR242      0.0417
    140  CZ        51.7420   24.3180  -13.8750 C.ar  242  TYR242      0.1957
    141  OH        51.1690   24.8350  -15.0200 O.3   242  TYR242     -0.2866
    142  N         50.3110   19.9090  -19.9760 N.3   286  PHE286     -0.1241
    143  CA        48.9760   20.2050  -20.5400 C.3   286  PHE286      0.1605
    144  C         48.9050   20.3520  -22.0590 C.2   286  PHE286      0.2264
    145  O         48.3710   21.3510  -22.5660 O.2   286  PHE286     -0.2867
    146  CB        48.4360   21.4780  -19.9020 C.3   286  PHE286      0.0534
    147  CG        48.3970   21.4470  -18.4040 C.ar  286  PHE286     -0.0203
    148  CD1       47.7020   20.4500  -17.7350 C.ar  286  PHE286     -0.0042
    149  CD2       48.9880   22.4610  -17.6680 C.ar  286  PHE286     -0.0042
    150  CE1       47.6570   20.4200  -16.3330 C.ar  286  PHE286     -0.0003
    151  CE2       48.9530   22.4460  -16.2630 C.ar  286  PHE286     -0.0003
    152  CZ        48.2940   21.4160  -15.6000 C.ar  286  PHE286     -0.0000
    153  N         47.8610   14.2940  -24.0980 N.3   290  ARG290     -0.1245
    154  CA        48.8250   14.0110  -23.0600 C.3   290  ARG290      0.1563
    155  C         49.0470   12.4910  -22.8880 C.2   290  ARG290      0.2260
    156  O         48.1280   11.6710  -23.0560 O.2   290  ARG290     -0.2867
    157  CB        48.3140   14.6330  -21.7700 C.3   290  ARG290      0.0307
    158  CG        49.2480   14.4820  -20.5760 C.3   290  ARG290      0.0489
    159  CD        48.4280   14.3450  -19.3240 C.3   290  ARG290      0.2205
    160  NE        48.3030   15.6060  -18.6740 N.pl3 290  ARG290     -0.0865
    161  CZ        47.5290   15.8470  -17.6330 C.cat 290  ARG290      0.5346
    162  NH1       46.7430   14.9140  -17.1290 N.pl3 290  ARG290      0.1354
    163  NH2       47.5430   17.0650  -17.1170 N.pl3 290  ARG290      0.1354
    164  N         42.4550   16.1480  -24.8660 N.3   296  ARG296     -0.1245
    165  CA        42.2740   17.2710  -23.9540 C.3   296  ARG296      0.1563
    166  C         41.6700   18.4730  -24.6730 C.2   296  ARG296      0.2260
    167  O         41.8360   19.6140  -24.2420 O.2   296  ARG296     -0.2867
    168  CB        43.6070   17.6590  -23.3110 C.3   296  ARG296      0.0307
    169  CG        44.1560   16.6210  -22.3460 C.3   296  ARG296      0.0489
    170  CD        45.5330   16.9530  -21.7950 C.3   296  ARG296      0.2205
    171  NE        45.5880   18.3010  -21.2370 N.pl3 296  ARG296     -0.0865
    172  CZ        45.1070   18.6350  -20.0470 C.cat 296  ARG296      0.5346
    173  NH1       44.5320   17.7190  -19.2800 N.pl3 296  ARG296      0.1354
    174  NH2       45.2010   19.8870  -19.6200 N.pl3 296  ARG296      0.1354
@<TRIPOS>BOND
     1   164   165    1
     2   105   106    1
     3   114   113    1
     4   118   119    2
     5   118   117    1
     6   166   167    2
     7   166   165    1
     8   107   108    2
     9   107   106    1
    10   120   117    1
    11   120   121    1
    12   153   154    1
    13   106   109    1
    14   165   168    1
    15   116   117    1
    16   109   110    1
    17   113   115    1
    18   113   112    2
    19   168   169    1
    20   154   155    1
    21   154   157    1
    22   156   155    2
    23   121   122   ar
    24   121   123   ar
    25   110   111    1
    26   122   124   ar
    27   111   112    1
    28   145   144    2
    29   169   170    1
    30   144   143    1
    31    97    98    1
    32    97    96    1
    33    97   100    1
    34   123   126   ar
    35   123   125   ar
    36    98    99    2
    37   170   171    1
    38   157   158    1
    39    94    93    1
    40   124   125   ar
    41   126   128   ar
    42   100   101    1
    43   171   172    2
    44   125   127   ar
    45    86    85    2
    46   158   159    1
    47   143   142    1
    48   143   146    1
    49    93    90    1
    50    93    95    1
    51    90    91    1
    52    90    89    1
    53    91    92    2
    54   128   129   ar
    55   172   174    1
    56   172   173    1
    57   146   147    1
    58    82    80    1
    59   101   102    1
    60   127   129   ar
    61    85    89   am
    62    85    84    1
    63   102   104   am
    64   102   103    2
    65   159   160    1
    66    80    81    1
    67    80    77    1
    68     4     3    2
    69   160   161    2
    70    83    84    1
    71    83    78   am
    72    84    87    1
    73   147   148   ar
    74   147   149   ar
    75    77    78    1
    76    77    76    1
    77     1     2    1
    78    87    88    1
    79     3     2    1
    80    78    79    2
    81   148   150   ar
    82   149   151   ar
    83   161   162    1
    84   161   163    1
    85     2     5    1
    86    13    12    2
    87     5     6    1
    88     6     7    1
    89    17    16   ar
    90    10    11    1
    91   150   152   ar
    92     7     9   ar
    93     7     8   ar
    94   151   152   ar
    95    16    15    1
    96    16    18   ar
    97    12    11    1
    98    15    14    1
    99    14    11    1
   100   141   140    1
   101    43    41   am
   102   140   138   ar
   103   140   139   ar
   104   138   136   ar
   105    51    50   ar
   106    40    41    1
   107    40    39    1
   108    27    25   ar
   109   139   137   ar
   110    50    49    1
   111    50    52   ar
   112    41    42    2
   113    26    25   ar
   114    49    48    1
   115    25    24    1
   116    39    36    1
   117    24    23    1
   118   136   135   ar
   119    48    45    1
   120   137   135   ar
   121    45    46    1
   122    45    44    1
   123    23    20    1
   124    46    47    2
   125   135   134    1
   126    36    37    1
   127    36    35    1
   128    34    33    1
   129    34    28    1
   130    37    38    2
   131   130   131    1
   132    33    32    1
   133    20    19    1
   134    20    21    1
   135   134   131    1
   136   131   132    1
   137    28    21   am
   138    28    29    1
   139    32    29    1
   140    63    61    1
   141    21    22    2
   142    29    30    1
   143    75    74    1
   144    30    31    2
   145    72    74   ar
   146    72    70   ar
   147    61    60    2
   148    61    62    1
   149    74    73   ar
   150   132   133    2
   151    70    69   ar
   152    60    59    1
   153    73    71   ar
   154    69    71   ar
   155    69    68    1
   156    67    66    2
   157    65    68    1
   158    65    66    1
   159    65    64    1
   160    56    55    2
   161    59    58    1
   162    58    57    1
   163    55    64   am
   164    55    54    1
   165    57    54    1
   166    54    53    1
