@<TRIPOS>MOLECULE
tmp/2gwdA00.pdb
 140 130 0 0 0
SMALL
GASTEIGER

@<TRIPOS>ATOM
      1  N         30.4820   25.1150   27.9190 N.3    27  GLU27      -0.1245
      2  CA        31.4600   24.2230   27.3240 C.3    27  GLU27       0.1567
      3  C         32.7950   24.9250   27.2410 C.2    27  GLU27       0.2260
      4  O         32.8680   26.1090   26.8870 O.2    27  GLU27      -0.2867
      5  CB        31.1080   23.8230   25.8960 C.3    27  GLU27       0.0388
      6  CG        29.7280   23.3030   25.6510 C.3    27  GLU27       0.1160
      7  CD        29.5260   22.8630   24.1920 C.2    27  GLU27       0.3649
      8  OE1       30.4610   22.9660   23.3570 O.co2  27  GLU27      -0.2457
      9  OE2       28.3940   22.4530   23.8730 O.co2  27  GLU27      -0.2457
     10  N         37.2180   23.9880   26.2200 N.3    29  GLU29      -0.1245
     11  CA        38.2050   23.0970   25.6270 C.3    29  GLU29       0.1567
     12  C         39.5790   23.5140   26.1550 C.2    29  GLU29       0.2260
     13  O         39.8290   24.7110   26.3780 O.2    29  GLU29      -0.2867
     14  CB        38.1840   23.2390   24.0870 C.3    29  GLU29       0.0388
     15  CG        36.8700   22.8410   23.4610 C.3    29  GLU29       0.1160
     16  CD        36.6360   23.4170   22.0850 C.2    29  GLU29       0.3649
     17  OE1       37.3810   24.3260   21.6770 O.co2  29  GLU29      -0.2457
     18  OE2       35.6920   22.9350   21.3910 O.co2  29  GLU29      -0.2457
     19  N         38.0560   17.2780   20.8510 N.3    81  GLU81      -0.1245
     20  CA        38.1460   17.9760   19.5780 C.3    81  GLU81       0.1567
     21  C         39.2640   17.3150   18.7200 C.2    81  GLU81       0.2260
     22  O         39.9990   16.4800   19.2220 O.2    81  GLU81      -0.2867
     23  CB        38.3650   19.4640   19.8210 C.3    81  GLU81       0.0388
     24  CG        37.1580   20.1690   20.4640 C.3    81  GLU81       0.1160
     25  CD        35.9240   20.1950   19.5590 C.2    81  GLU81       0.3649
     26  OE1       36.0510   20.0270   18.3290 O.co2  81  GLU81      -0.2457
     27  OE2       34.8140   20.3980   20.0820 O.co2  81  GLU81      -0.2457
     28  N         42.0290   18.3690   21.8550 N.3    85  GLN85      -0.1245
     29  CA        41.5890   19.3780   22.8190 C.3    85  GLN85       0.1566
     30  C         40.5220   18.7160   23.6820 C.2    85  GLN85       0.2260
     31  O         39.6420   18.0060   23.1790 O.2    85  GLN85      -0.2867
     32  CB        41.0700   20.6560   22.1570 C.3    85  GLN85       0.0367
     33  CG        42.0060   21.2860   21.1130 C.3    85  GLN85       0.0905
     34  CD        41.6630   20.8440   19.7140 C.2    85  GLN85       0.2608
     35  OE1       41.6470   19.6410   19.4230 O.2    85  GLN85      -0.2717
     36  NE2       41.3600   21.8180   18.8250 N.am   85  GLN85      -0.0878
     37  N         37.5640   18.5140   26.1450 N.3    87  GLU87      -0.1245
     38  CA        36.3530   19.2860   26.3550 C.3    87  GLU87       0.1567
     39  C         35.4430   18.7640   27.4600 C.2    87  GLU87       0.2260
     40  O         35.1860   17.5740   27.5260 O.2    87  GLU87      -0.2867
     41  CB        35.5230   19.2920   25.0870 C.3    87  GLU87       0.0388
     42  CG        34.1880   20.0230   25.2360 C.3    87  GLU87       0.1160
     43  CD        33.5130   20.2310   23.9150 C.2    87  GLU87       0.3649
     44  OE1       34.1950   20.7310   23.0100 O.co2  87  GLU87      -0.2457
     45  OE2       32.3230   19.8810   23.7710 O.co2  87  GLU87      -0.2457
     46  N         41.6650   25.5570   12.8290 N.3   160  MET160     -0.1245
     47  CA        40.4860   25.5640   13.6530 C.3   160  MET160      0.1570
     48  C         40.3940   24.2020   14.3430 C.2   160  MET160      0.2261
     49  O         40.3300   24.1190   15.5700 O.2   160  MET160     -0.2867
     50  CB        39.2320   25.8440   12.8190 C.3   160  MET160      0.0387
     51  CG        37.9550   25.9470   13.6550 C.3   160  MET160      0.0595
     52  SD        37.2580   24.3120   14.0140 S.3   160  MET160     -0.1393
     53  CE        36.4790   23.9660   12.4400 C.3   160  MET160      0.0692
     54  N         42.8340   25.2260   17.9850 N.3   164  THR164     -0.1203
     55  CA        42.0610   26.2210   18.7440 C.3   164  THR164      0.1994
     56  C         41.2870   25.6150   19.9120 C.2   164  THR164      0.2618
     57  O         40.9460   24.4340   19.9080 O.2   164  THR164     -0.2717
     58  CB        41.0650   27.0410   17.8620 C.3   164  THR164      0.1784
     59  OG1       39.9920   26.2170   17.3840 O.3   164  THR164     -0.2211
     60  CG2       41.7580   27.6950   16.7070 C.3   164  THR164      0.0376
     61  N         41.0330   26.4440   20.9110 N.am  165  CYS165     -0.1955
     62  CA        40.1920   26.0980   22.0620 C.3   165  CYS165      0.1843
     63  C         39.2430   27.2520   22.3620 C.2   165  CYS165      0.2626
     64  O         39.6820   28.3880   22.4090 O.2   165  CYS165     -0.2714
     65  CB        41.0440   25.8910   23.3110 C.3   165  CYS165      0.0997
     66  SG        41.7390   24.2660   23.5440 S.3   165  CYS165     -0.0797
     67  N         37.9700   26.9290   22.6010 N.am  166  THR166     -0.1950
     68  CA        36.9480   27.9120   22.9510 C.3   166  THR166      0.1897
     69  C         36.4240   27.6860   24.3730 C.2   166  THR166      0.2313
     70  O         36.5690   26.6070   24.9620 O.2   166  THR166     -0.2863
     71  CB        35.7130   27.8630   21.9760 C.3   166  THR166      0.1794
     72  OG1       34.8440   28.9810   22.2240 O.3   166  THR166     -0.2208
     73  CG2       34.9030   26.6290   22.1910 C.3   166  THR166      0.0378
     74  N         32.4770   28.4350   25.5290 N.3   168  GLN168     -0.1245
     75  CA        31.1700   28.9070   25.0990 C.3   168  GLN168      0.1566
     76  C         30.0810   28.6560   26.1290 C.2   168  GLN168      0.2260
     77  O         30.2510   27.9380   27.1330 O.2   168  GLN168     -0.2867
     78  CB        30.7730   28.2860   23.7570 C.3   168  GLN168      0.0367
     79  CG        30.4570   26.8310   23.7750 C.3   168  GLN168      0.0905
     80  CD        30.0980   26.3370   22.3870 C.2   168  GLN168      0.2608
     81  OE1       30.9740   26.1800   21.5170 O.2   168  GLN168     -0.2717
     82  NE2       28.8130   26.1030   22.1650 N.am  168  GLN168     -0.0878
     83  N         42.7400   32.7190   17.0660 N.3   214  ARG214     -0.1245
     84  CA        41.6090   31.7970   17.0390 C.3   214  ARG214      0.1563
     85  C         40.4310   32.4060   16.2840 C.2   214  ARG214      0.2260
     86  O         39.9140   31.7820   15.3610 O.2   214  ARG214     -0.2867
     87  CB        41.1840   31.4090   18.4520 C.3   214  ARG214      0.0307
     88  CG        39.9170   30.5930   18.4940 C.3   214  ARG214      0.0489
     89  CD        39.3940   30.3500   19.9040 C.3   214  ARG214      0.2205
     90  NE        37.9780   30.0170   19.8060 N.pl3 214  ARG214     -0.0865
     91  CZ        37.0030   30.9230   19.7440 C.cat 214  ARG214      0.5346
     92  NH1       37.2570   32.2160   19.8700 N.pl3 214  ARG214      0.1354
     93  NH2       35.7590   30.5300   19.5690 N.pl3 214  ARG214      0.1354
     94  N         38.6650   31.5210   12.2680 N.3   218  TRP218     -0.1241
     95  CA        37.2730   31.3190   11.8910 C.3   218  TRP218      0.1605
     96  C         36.7950   32.1750   10.7220 C.2   218  TRP218      0.2264
     97  O         35.6560   32.0110   10.2660 O.2   218  TRP218     -0.2867
     98  CB        36.3710   31.5400   13.1000 C.3   218  TRP218      0.0550
     99  CG        36.3010   30.3840   14.0280 C.ar  218  TRP218      0.0003
    100  CD1       36.8300   30.3100   15.2830 C.ar  218  TRP218      0.0946
    101  CD2       35.6240   29.1480   13.8030 C.ar  218  TRP218      0.0152
    102  NE1       36.5320   29.0980   15.8480 N.ar  218  TRP218     -0.2442
    103  CE2       35.7930   28.3640   14.9600 C.ar  218  TRP218      0.0810
    104  CE3       34.8910   28.6260   12.7310 C.ar  218  TRP218      0.0012
    105  CZ2       35.2510   27.0800   15.0800 C.ar  218  TRP218      0.0191
    106  CZ3       34.3610   27.3670   12.8440 C.ar  218  TRP218      0.0001
    107  CH2       34.5350   26.6020   14.0060 C.ar  218  TRP218      0.0015
    108  N         28.8690   26.6920   12.0110 N.3   297  PHE297     -0.1241
    109  CA        29.7360   27.3400   12.9640 C.3   297  PHE297      0.1605
    110  C         29.7440   28.8750   12.8750 C.2   297  PHE297      0.2264
    111  O         30.7940   29.4680   12.7530 O.2   297  PHE297     -0.2867
    112  CB        31.1720   26.8320   12.7750 C.3   297  PHE297      0.0534
    113  CG        31.3300   25.3230   12.7910 C.ar  297  PHE297     -0.0203
    114  CD1       31.0000   24.5710   13.9250 C.ar  297  PHE297     -0.0042
    115  CD2       31.9110   24.6710   11.7030 C.ar  297  PHE297     -0.0042
    116  CE1       31.2000   23.1870   13.9540 C.ar  297  PHE297     -0.0003
    117  CE2       32.1030   23.2890   11.7080 C.ar  297  PHE297     -0.0003
    118  CZ        31.7540   22.5440   12.8360 C.ar  297  PHE297     -0.0000
    119  N         25.3020   30.3900   17.1330 N.3   301  ARG301     -0.1245
    120  CA        24.6680   29.2670   16.4870 C.3   301  ARG301      0.1563
    121  C         23.3030   29.0240   17.1070 C.2   301  ARG301      0.2260
    122  O         23.1450   29.1420   18.3070 O.2   301  ARG301     -0.2867
    123  CB        25.5480   28.0270   16.6310 C.3   301  ARG301      0.0307
    124  CG        24.9210   26.7470   16.1390 C.3   301  ARG301      0.0489
    125  CD        25.5350   25.5720   16.8610 C.3   301  ARG301      0.2205
    126  NE        26.6100   25.0400   16.1150 N.pl3 301  ARG301     -0.0865
    127  CZ        27.4140   24.0630   16.5080 C.cat 301  ARG301      0.5346
    128  NH1       27.3440   23.5120   17.7240 N.pl3 301  ARG301      0.1354
    129  NH2       28.3060   23.6420   15.6400 N.pl3 301  ARG301      0.1354
    130  N         29.6520   31.8380   20.5560 N.3   309  ARG309     -0.1245
    131  CA        30.7360   31.0180   20.0290 C.3   309  ARG309      0.1563
    132  C         32.0070   31.8390   19.8400 C.2   309  ARG309      0.2260
    133  O         32.8400   31.5250   18.9900 O.2   309  ARG309     -0.2867
    134  CB        30.3240   30.3740   18.7030 C.3   309  ARG309      0.0307
    135  CG        29.2820   29.2760   18.8440 C.3   309  ARG309      0.0489
    136  CD        28.9600   28.5560   17.5450 C.3   309  ARG309      0.2205
    137  NE        30.1660   28.0970   16.8610 N.pl3 309  ARG309     -0.0865
    138  CZ        30.7100   26.9000   17.0320 C.cat 309  ARG309      0.5346
    139  NH1       30.1570   26.0320   17.8690 N.pl3 309  ARG309      0.1354
    140  NH2       31.8080   26.5670   16.3680 N.pl3 309  ARG309      0.1354
@<TRIPOS>BOND
     1    97    96    2
     2    96    95    1
     3   115   117   ar
     4   115   113   ar
     5   117   118   ar
     6    95    94    1
     7    95    98    1
     8   108   109    1
     9    53    52    1
    10   104   106   ar
    11   104   101   ar
    12   111   110    2
    13   112   113    1
    14   112   109    1
    15   113   114   ar
    16    50    47    1
    17    50    51    1
    18    46    47    1
    19   118   116   ar
    20   106   107   ar
    21   110   109    1
    22    98    99    1
    23    47    48    1
    24    51    52    1
    25   101    99   ar
    26   101   103   ar
    27   114   116   ar
    28   107   105   ar
    29    99   100   ar
    30    48    49    2
    31   103   105   ar
    32   103   102   ar
    33   100   102   ar
    34    86    85    2
    35   129   127    1
    36   126   127    2
    37   126   125    1
    38   124   123    1
    39   124   125    1
    40    85    84    1
    41   140   138    1
    42   120   123    1
    43   120   121    1
    44   120   119    1
    45   127   128    1
    46    60    58    1
    47   137   138    2
    48   137   136    1
    49   138   139    1
    50    84    83    1
    51    84    87    1
    52   121   122    2
    53    59    58    1
    54   136   135    1
    55    58    55    1
    56    54    55    1
    57    26    25   ar
    58    87    88    1
    59    88    89    1
    60   134   135    1
    61   134   131    1
    62    21    22    2
    63    21    20    1
    64    55    56    1
    65    36    34   am
    66   133   132    2
    67    35    34    2
    68    25    27   ar
    69    25    24    1
    70    93    91    1
    71    20    23    1
    72    20    19    1
    73    34    33    1
    74    91    90    2
    75    91    92    1
    76    90    89    1
    77    23    24    1
    78   132   131    1
    79    57    56    2
    80    56    61   am
    81   131   130    1
    82    61    62    1
    83    33    32    1
    84    18    16   ar
    85    81    80    2
    86    17    16   ar
    87    28    29    1
    88    71    73    1
    89    71    72    1
    90    71    68    1
    91    62    63    1
    92    62    65    1
    93    16    15    1
    94    32    29    1
    95    82    80   am
    96    63    64    2
    97    63    67   am
    98    80    79    1
    99    67    68    1
   100    29    30    1
   101    68    69    1
   102    44    43   ar
   103    31    30    2
   104    65    66    1
   105     8     7   ar
   106    15    14    1
   107    78    79    1
   108    78    75    1
   109    45    43   ar
   110     9     7   ar
   111    43    42    1
   112    14    11    1
   113     7     6    1
   114    69    70    2
   115    41    42    1
   116    41    38    1
   117    75    74    1
   118    75    76    1
   119    11    12    1
   120    11    10    1
   121     6     5    1
   122     5     2    1
   123    76    77    2
   124    37    38    1
   125    12    13    2
   126    38    39    1
   127     4     3    2
   128     3     2    1
   129     2     1    1
   130    39    40    2
