@<TRIPOS>MOLECULE
tmp/2gwhB00.pdb
 191 184 0 0 0
SMALL
GASTEIGER

@<TRIPOS>ATOM
      1  N        -13.4920   44.1360   62.3780 N.3    41  LYS41      -0.1245
      2  CA       -12.2180   44.6120   61.7110 C.3    41  LYS41       0.1561
      3  C        -12.3600   45.8380   60.7660 C.2    41  LYS41       0.2260
      4  O        -11.4060   46.2020   60.0690 O.2    41  LYS41      -0.2867
      5  CB       -11.5070   43.4580   60.9530 C.3    41  LYS41       0.0271
      6  CG       -11.3560   42.1630   61.7190 C.3    41  LYS41       0.0035
      7  CD       -11.0110   42.3330   63.2250 C.3    41  LYS41       0.0206
      8  CE        -9.5680   42.8270   63.4710 C.3    41  LYS41       0.1093
      9  NZ        -9.3580   43.0960   64.9380 N.3    41  LYS41      -0.1314
     10  N        -12.6400   48.8840   61.6860 N.3    43  GLY43      -0.1210
     11  CA       -12.0260   50.0780   62.3370 C.3    43  GLY43       0.1956
     12  C        -12.6800   50.4570   63.6610 C.2    43  GLY43       0.2613
     13  O        -12.7800   51.6640   63.9930 O.2    43  GLY43      -0.2717
     14  N        -13.1160   49.4470   64.4290 N.am   44  THR44      -0.1938
     15  CA       -13.8320   49.6990   65.6870 C.3    44  THR44       0.2028
     16  C        -12.9750   50.4600   66.7200 C.2    44  THR44       0.2643
     17  O        -13.3930   51.4940   67.2800 O.2    44  THR44      -0.2714
     18  CB       -14.3490   48.3710   66.3420 C.3    44  THR44       0.1808
     19  OG1      -14.8270   47.4650   65.3340 O.3    44  THR44      -0.2208
     20  CG2      -15.5160   48.6530   67.3030 C.3    44  THR44       0.0379
     21  N        -11.7800   49.9390   66.9650 N.am   45  THR45      -0.1936
     22  CA       -10.9080   50.4420   68.0290 C.3    45  THR45       0.2028
     23  C        -10.4690   51.8900   67.7370 C.2    45  THR45       0.2642
     24  O        -10.4270   52.7320   68.6250 O.2    45  THR45      -0.2714
     25  CB        -9.7040   49.4880   68.2070 C.3    45  THR45       0.1808
     26  OG1      -10.1960   48.1480   68.4520 O.3    45  THR45      -0.2208
     27  CG2       -8.8050   49.9500   69.3660 C.3    45  THR45       0.0379
     28  N        -10.1520   52.1380   66.4830 N.am   46  TRP46      -0.1973
     29  CA        -9.7860   53.4370   65.9720 C.3    46  TRP46       0.1640
     30  C        -10.9020   54.4580   66.1860 C.2    46  TRP46       0.2290
     31  O        -10.6670   55.5400   66.7000 O.2    46  TRP46      -0.2864
     32  CB        -9.4740   53.2780   64.4880 C.3    46  TRP46       0.0576
     33  CG        -8.8960   54.4820   63.7940 C.ar   46  TRP46       0.0006
     34  CD1       -8.3840   55.6130   64.3720 C.ar   46  TRP46       0.0946
     35  CD2       -8.7240   54.6380   62.3920 C.ar   46  TRP46       0.0152
     36  NE1       -7.9350   56.4800   63.4100 N.ar   46  TRP46      -0.2442
     37  CE2       -8.1210   55.9120   62.1810 C.ar   46  TRP46       0.0810
     38  CE3       -9.0340   53.8320   61.2780 C.ar   46  TRP46       0.0012
     39  CZ2       -7.7970   56.3960   60.8960 C.ar   46  TRP46       0.0191
     40  CZ3       -8.7200   54.3110   59.9920 C.ar   46  TRP46       0.0001
     41  CH2       -8.1000   55.5830   59.8180 C.ar   46  TRP46       0.0015
     42  N        -20.3110   49.5580   71.9390 N.3    99  LYS99      -0.1245
     43  CA       -19.8140   48.8870   70.7310 C.3    99  LYS99       0.1561
     44  C        -20.7350   47.7150   70.3320 C.2    99  LYS99       0.2260
     45  O        -21.2520   46.9900   71.1790 O.2    99  LYS99      -0.2867
     46  CB       -18.3550   48.3880   70.9600 C.3    99  LYS99       0.0271
     47  CG       -17.9190   47.2120   70.0360 C.3    99  LYS99       0.0035
     48  CD       -16.4160   46.8940   70.2130 C.3    99  LYS99       0.0206
     49  CE       -16.0430   45.5610   69.5060 C.3    99  LYS99       0.1093
     50  NZ       -14.5660   45.2170   69.6670 N.3    99  LYS99      -0.1314
     51  N        -21.0030   44.6880   66.8430 N.3   101  HIS101     -0.1241
     52  CA       -20.8240   44.1990   65.4820 C.3   101  HIS101      0.1621
     53  C        -22.1440   43.6440   64.8590 C.2   101  HIS101      0.2264
     54  O        -22.1140   43.0780   63.7670 O.2   101  HIS101     -0.2867
     55  CB       -19.7580   43.0730   65.4000 C.3   101  HIS101      0.0745
     56  CG       -18.3590   43.4700   65.8180 C.ar  101  HIS101      0.0817
     57  ND1      -17.7530   44.6480   65.4340 N.ar  101  HIS101     -0.2268
     58  CD2      -17.4260   42.7870   66.5340 C.ar  101  HIS101      0.1154
     59  CE1      -16.5220   44.6970   65.9320 C.ar  101  HIS101      0.1986
     60  NE2      -16.2960   43.5740   66.5870 N.ar  101  HIS101     -0.2212
     61  N        -15.4980   49.2840   55.8310 N.3   123  ARG123     -0.1245
     62  CA       -14.1590   49.1940   55.2530 C.3   123  ARG123      0.1563
     63  C        -14.2330   48.3470   53.9770 C.2   123  ARG123      0.2260
     64  O        -15.1000   47.4570   53.8570 O.2   123  ARG123     -0.2867
     65  CB       -13.1990   48.5890   56.2890 C.3   123  ARG123      0.0307
     66  CG       -11.7410   48.4360   55.8400 C.3   123  ARG123      0.0489
     67  CD       -10.9090   47.8990   56.9780 C.3   123  ARG123      0.2205
     68  NE        -9.4600   48.0500   56.7170 N.pl3 123  ARG123     -0.0865
     69  CZ        -8.5200   47.5300   57.4940 C.cat 123  ARG123      0.5346
     70  NH1       -8.8650   46.7780   58.5460 N.pl3 123  ARG123      0.1354
     71  NH2       -7.2270   47.7120   57.1950 N.pl3 123  ARG123      0.1354
     72  N         -9.4660   44.4810   52.2290 N.3   127  ASP127     -0.1239
     73  CA        -8.7340   44.7680   53.4670 C.3   127  ASP127      0.1674
     74  C         -9.4860   44.2150   54.6830 C.2   127  ASP127      0.2266
     75  O         -8.8790   43.7260   55.6100 O.2   127  ASP127     -0.2867
     76  CB        -8.5010   46.2710   53.6430 C.3   127  ASP127      0.1410
     77  CG        -7.3400   46.7840   52.8250 C.2   127  ASP127      0.3668
     78  OD1       -6.3160   46.0740   52.7130 O.co2 127  ASP127     -0.2456
     79  OD2       -7.4360   47.9160   52.3490 O.co2 127  ASP127     -0.2456
     80  N         -7.7630   41.5630   57.2890 N.3   131  SER131     -0.1217
     81  CA        -7.7120   41.9200   58.7000 C.3   131  SER131      0.1889
     82  C         -8.3790   40.8560   59.5730 C.2   131  SER131      0.2288
     83  O         -7.8490   40.4880   60.6450 O.2   131  SER131     -0.2866
     84  CB        -8.3080   43.3140   58.9310 C.3   131  SER131      0.2089
     85  OG        -8.0980   43.7560   60.2710 O.3   131  SER131     -0.2183
     86  N         -6.7930   38.2280   62.3940 N.3   135  PHE135     -0.1241
     87  CA        -7.4040   38.3220   63.6940 C.3   135  PHE135      0.1605
     88  C         -7.8130   36.9230   64.1830 C.2   135  PHE135      0.2264
     89  O         -7.5960   36.5950   65.3500 O.2   135  PHE135     -0.2867
     90  CB        -8.6080   39.2570   63.6460 C.3   135  PHE135      0.0534
     91  CG        -9.1710   39.6220   65.0160 C.ar  135  PHE135     -0.0203
     92  CD1       -8.3410   40.1270   66.0340 C.ar  135  PHE135     -0.0042
     93  CD2      -10.5550   39.5420   65.2420 C.ar  135  PHE135     -0.0042
     94  CE1       -8.8830   40.5080   67.2640 C.ar  135  PHE135     -0.0003
     95  CE2      -11.1000   39.9000   66.4620 C.ar  135  PHE135     -0.0003
     96  CZ       -10.2570   40.4060   67.4740 C.ar  135  PHE135     -0.0000
     97  N        -13.5100   53.6290   56.5940 N.3   186  TYR186     -0.1241
     98  CA       -12.1120   53.4700   57.0580 C.3   186  TYR186      0.1605
     99  C        -11.0960   54.2220   56.1360 C.2   186  TYR186      0.2264
    100  O        -10.1410   54.8860   56.6180 O.2   186  TYR186     -0.2867
    101  CB       -11.8040   51.9630   57.1100 C.3   186  TYR186      0.0534
    102  CG       -10.4030   51.6060   57.5690 C.ar  186  TYR186     -0.0201
    103  CD1      -10.1540   51.2880   58.9120 C.ar  186  TYR186     -0.0009
    104  CD2       -9.3260   51.5970   56.6560 C.ar  186  TYR186     -0.0009
    105  CE1       -8.8530   50.9560   59.3450 C.ar  186  TYR186      0.0417
    106  CE2       -8.0070   51.2760   57.0760 C.ar  186  TYR186      0.0417
    107  CZ        -7.7830   50.9680   58.4230 C.ar  186  TYR186      0.1957
    108  OH        -6.5050   50.6450   58.8610 O.3   186  TYR186     -0.2866
    109  N         -8.4840   57.2530   56.8430 N.3   190  LYS190     -0.1245
    110  CA        -7.0460   57.1150   56.6540 C.3   190  LYS190      0.1561
    111  C         -6.4900   58.2130   55.7460 C.2   190  LYS190      0.2260
    112  O         -5.3990   58.7310   55.9970 O.2   190  LYS190     -0.2867
    113  CB        -6.7230   55.7320   56.1070 C.3   190  LYS190      0.0271
    114  CG        -5.2210   55.3750   56.0690 C.3   190  LYS190      0.0035
    115  CD        -4.6890   54.8980   57.4400 C.3   190  LYS190      0.0206
    116  CE        -3.1610   54.9370   57.5150 C.3   190  LYS190      0.1093
    117  NZ        -2.7470   54.4800   58.8740 N.3   190  LYS190     -0.1314
    118  N         -4.8300   59.7120   67.4540 N.3   220  THR220     -0.1218
    119  CA        -5.5620   58.5980   66.8460 C.3   220  THR220      0.1862
    120  C         -4.9040   58.0760   65.5650 C.2   220  THR220      0.2287
    121  O         -5.5000   57.2610   64.8530 O.2   220  THR220     -0.2866
    122  CB        -7.0270   58.9450   66.5760 C.3   220  THR220      0.1770
    123  OG1       -7.1160   60.0270   65.6210 O.3   220  THR220     -0.2211
    124  CG2       -7.7330   59.3250   67.8870 C.3   220  THR220      0.0375
    125  N         -2.3860   55.6460   63.5110 N.3   222  PHE222     -0.1241
    126  CA        -2.0130   54.2380   63.7200 C.3   222  PHE222      0.1605
    127  C         -0.7350   54.1100   64.5610 C.2   222  PHE222      0.2264
    128  O         -0.7130   53.3770   65.5570 O.2   222  PHE222     -0.2867
    129  CB        -1.8180   53.4740   62.3880 C.3   222  PHE222      0.0534
    130  CG        -1.4390   52.0180   62.5860 C.ar  222  PHE222     -0.0203
    131  CD1       -2.3970   51.0820   62.9690 C.ar  222  PHE222     -0.0042
    132  CD2       -0.1140   51.5960   62.4470 C.ar  222  PHE222     -0.0042
    133  CE1       -2.0550   49.7380   63.1730 C.ar  222  PHE222     -0.0003
    134  CE2        0.2410   50.2460   62.6560 C.ar  222  PHE222     -0.0003
    135  CZ        -0.7020   49.3310   63.0180 C.ar  222  PHE222     -0.0000
    136  N         -1.4120   55.0320   68.2790 N.3   225  MET225     -0.1245
    137  CA        -2.3010   54.0720   68.9330 C.3   225  MET225      0.1570
    138  C         -1.6700   52.6850   69.0990 C.2   225  MET225      0.2261
    139  O         -1.8590   52.0260   70.1270 O.2   225  MET225     -0.2867
    140  CB        -3.6450   53.9690   68.1860 C.3   225  MET225      0.0387
    141  CG        -4.4850   55.2190   68.3260 C.3   225  MET225      0.0595
    142  SD        -6.1580   54.9460   67.6790 S.3   225  MET225     -0.1393
    143  CE        -6.7520   53.6470   68.7570 C.3   225  MET225      0.0692
    144  N         -2.6990   42.9970   67.2920 N.3   248  PHE248     -0.1227
    145  CA        -3.9940   43.5710   67.0220 C.3   248  PHE248      0.1736
    146  C         -3.8200   44.7890   66.1290 C.2   248  PHE248      0.2595
    147  O         -4.5660   44.9680   65.1410 O.2   248  PHE248     -0.2718
    148  CB        -4.7040   43.9330   68.3190 C.3   248  PHE248      0.0547
    149  CG        -6.1140   44.3830   68.1230 C.ar  248  PHE248     -0.0202
    150  CD1       -7.1730   43.5010   68.3340 C.ar  248  PHE248     -0.0042
    151  CD2       -6.3890   45.6770   67.7190 C.ar  248  PHE248     -0.0042
    152  CE1       -8.5310   43.9360   68.1640 C.ar  248  PHE248     -0.0003
    153  CE2       -7.7180   46.1180   67.5500 C.ar  248  PHE248     -0.0003
    154  CZ        -8.7860   45.2300   67.7700 C.ar  248  PHE248     -0.0000
    155  N         -2.8410   45.6330   66.4670 N.am  249  MET249     -0.1965
    156  CA        -2.5080   46.7620   65.6130 C.3   249  MET249      0.1736
    157  C         -1.5150   46.2450   64.5830 C.2   249  MET249      0.2616
    158  O         -0.2850   46.3160   64.7740 O.2   249  MET249     -0.2715
    159  CB        -1.9700   47.9250   66.4400 C.3   249  MET249      0.0427
    160  CG        -2.8370   48.2510   67.6490 C.3   249  MET249      0.0599
    161  SD        -4.4170   48.9160   67.1170 S.3   249  MET249     -0.1393
    162  CE        -3.8710   50.5010   66.5210 C.3   249  MET249      0.0692
    163  N         -2.0640   45.6700   63.5120 N.am  250  ARG250     -0.1963
    164  CA        -1.2820   44.8990   62.5470 C.3   250  ARG250      0.1729
    165  C         -0.5120   45.7940   61.5580 C.2   250  ARG250      0.2616
    166  O          0.7270   45.8810   61.6240 O.2   250  ARG250     -0.2715
    167  CB        -2.1910   43.8840   61.8360 C.3   250  ARG250      0.0348
    168  CG        -1.4810   42.7730   61.0610 C.3   250  ARG250      0.0492
    169  CD        -2.5040   41.9110   60.3380 C.3   250  ARG250      0.2205
    170  NE        -3.3660   42.6990   59.4380 N.pl3 250  ARG250     -0.0865
    171  CZ        -3.1290   42.8830   58.1380 C.cat 250  ARG250      0.5346
    172  NH1       -2.0370   42.3370   57.5590 N.pl3 250  ARG250      0.1354
    173  NH2       -3.9800   43.6160   57.4010 N.pl3 250  ARG250      0.1354
    174  N         -1.2360   46.4640   60.6670 N.am  251  LYS251     -0.1963
    175  CA        -0.6330   47.3080   59.6370 C.3   251  LYS251      0.1728
    176  C         -1.2710   48.6910   59.6110 C.2   251  LYS251      0.2617
    177  O         -0.5800   49.7050   59.4100 O.2   251  LYS251     -0.2715
    178  CB        -0.7850   46.6550   58.2510 C.3   251  LYS251      0.0311
    179  CG        -0.0760   45.3100   58.0770 C.3   251  LYS251      0.0038
    180  CD         1.4330   45.3630   58.4430 C.3   251  LYS251      0.0206
    181  CE         2.0090   43.9740   58.8430 C.3   251  LYS251      0.1093
    182  NZ         1.5510   43.4920   60.2040 N.3   251  LYS251     -0.1314
    183  N         -2.6040   48.7250   59.7660 N.am  252  GLY252     -0.1940
    184  CA        -3.3790   49.9790   59.7490 C.3   252  GLY252      0.2014
    185  C         -3.3170   50.6980   58.4030 C.2   252  GLY252      0.2638
    186  O         -3.3170   51.9390   58.3440 O.2   252  GLY252     -0.2714
    187  N         -3.2600   49.9240   57.3340 N.am  253  ALA253     -0.1977
    188  CA        -3.0290   50.4490   55.9890 C.3   253  ALA253      0.1597
    189  C         -4.1270   50.0420   54.9810 C.2   253  ALA253      0.2287
    190  O         -4.6100   48.9070   54.9840 O.2   253  ALA253     -0.2864
    191  CB        -1.6200   50.0210   55.4680 C.3   253  ALA253      0.0319
@<TRIPOS>BOND
     1    72    73    1
     2    79    77   ar
     3    78    77   ar
     4    77    76    1
     5    73    76    1
     6    73    74    1
     7    64    63    2
     8    63    62    1
     9    74    75    2
    10   189   190    2
    11   189   188    1
    12    62    61    1
    13    62    65    1
    14   191   188    1
    15   111   112    2
    16   111   110    1
    17    66    65    1
    18    66    67    1
    19   188   187    1
    20   114   113    1
    21   114   115    1
    22   113   110    1
    23    99   100    2
    24    99    98    1
    25    97    98    1
    26   110   109    1
    27   104   106   ar
    28   104   102   ar
    29    68    67    1
    30    68    69    2
    31    98   101    1
    32   106   107   ar
    33   101   102    1
    34    71    69    1
    35    80    81    1
    36   187   185   am
    37   173   171    1
    38   115   116    1
    39    69    70    1
    40   116   117    1
    41   172   171    1
    42   102   103   ar
    43   179   178    1
    44   179   180    1
    45   171   170    2
    46   178   175    1
    47   186   185    2
    48   185   184    1
    49   107   108    1
    50   107   105   ar
    51   180   181    1
    52    81    84    1
    53    81    82    1
    54   181   182    1
    55   103   105   ar
    56    84    85    1
    57   177   176    2
    58   170   169    1
    59    82    83    2
    60   176   175    1
    61   176   183   am
    62   175   174    1
    63   184   183    1
    64    41    40   ar
    65    41    39   ar
    66    40    38   ar
    67     4     3    2
    68   169   168    1
    69   174   165   am
    70     3     2    1
    71    39    37   ar
    72     5     2    1
    73     5     6    1
    74   168   167    1
    75    38    35   ar
    76   165   166    2
    77   165   164    1
    78    10    11    1
    79     2     1    1
    80     6     7    1
    81   167   164    1
    82    37    35   ar
    83    37    36   ar
    84    11    12    1
    85   129   130    1
    86   129   126    1
    87    35    33   ar
    88    86    87    1
    89   132   130   ar
    90   132   134   ar
    91   164   163    1
    92   130   131   ar
    93   134   135   ar
    94   131   133   ar
    95   135   133   ar
    96     7     8    1
    97    36    34   ar
    98     8     9    1
    99   125   126    1
   100   163   157   am
   101    90    87    1
   102    90    91    1
   103    12    13    2
   104    12    14   am
   105    87    88    1
   106   126   127    1
   107    54    53    2
   108    33    34   ar
   109    33    32    1
   110    88    89    2
   111    14    15    1
   112    32    29    1
   113   127   128    2
   114   157   158    2
   115   157   156    1
   116   121   120    2
   117    53    52    1
   118    91    93   ar
   119    91    92   ar
   120   147   146    2
   121    93    95   ar
   122    19    18    1
   123    55    52    1
   124    55    56    1
   125    57    56   ar
   126    57    59   ar
   127    52    51    1
   128   120   119    1
   129   156   159    1
   130   156   155    1
   131   123   122    1
   132    15    18    1
   133    15    16    1
   134    56    58   ar
   135    59    60   ar
   136    29    30    1
   137    29    28    1
   138    92    94   ar
   139   146   155   am
   140   146   145    1
   141    30    31    2
   142    18    20    1
   143   159   160    1
   144    95    96   ar
   145    28    23   am
   146   162   161    1
   147    58    60   ar
   148   122   119    1
   149   122   124    1
   150    16    21   am
   151    16    17    2
   152   119   118    1
   153    21    22    1
   154   145   144    1
   155   145   148    1
   156   161   160    1
   157    94    96   ar
   158   153   151   ar
   159   153   154   ar
   160   142   141    1
   161   142   143    1
   162   151   149   ar
   163    23    22    1
   164    23    24    2
   165   154   152   ar
   166    22    25    1
   167   149   148    1
   168   149   150   ar
   169   152   150   ar
   170   140   141    1
   171   140   137    1
   172    25    26    1
   173    25    27    1
   174   136   137    1
   175   137   138    1
   176   138   139    2
   177    49    50    1
   178    49    48    1
   179    47    48    1
   180    47    46    1
   181    44    43    1
   182    44    45    2
   183    43    46    1
   184    43    42    1
