@<TRIPOS>MOLECULE
tmp/2gwhB01.pdb
 206 198 0 0 0
SMALL
GASTEIGER

@<TRIPOS>ATOM
      1  N        -19.0510   34.0630   68.7820 N.3    14  PRO14      -0.2116
      2  CA       -18.1020   33.4410   69.7290 C.3    14  PRO14       0.1372
      3  C        -18.7110   33.3660   71.1390 C.2    14  PRO14       0.2244
      4  O        -18.3020   34.1050   72.0430 O.2    14  PRO14      -0.2868
      5  CB       -16.8920   34.3930   69.6940 C.3    14  PRO14       0.0268
      6  CG       -17.5190   35.7690   69.4060 C.3    14  PRO14       0.0207
      7  CD       -18.7300   35.4840   68.5060 C.3    14  PRO14       0.0892
      8  N        -16.8940   43.1900   62.0040 N.3    40  PRO40      -0.2102
      9  CA       -15.5970   42.9030   62.6470 C.3    40  PRO40       0.1504
     10  C        -14.4080   43.3630   61.7690 C.2    40  PRO40       0.2575
     11  O        -14.3680   43.0390   60.5510 O.2    40  PRO40      -0.2718
     12  CB       -15.6050   41.3710   62.7600 C.3    40  PRO40       0.0282
     13  CG       -17.0250   41.0430   62.9780 C.3    40  PRO40       0.0208
     14  CD       -17.7290   41.9790   61.9780 C.3    40  PRO40       0.0893
     15  N        -13.4920   44.1360   62.3780 N.am   41  LYS41      -0.1980
     16  CA       -12.2180   44.6120   61.7110 C.3    41  LYS41       0.1596
     17  C        -12.3600   45.8380   60.7660 C.2    41  LYS41       0.2287
     18  O        -11.4060   46.2020   60.0690 O.2    41  LYS41      -0.2864
     19  CB       -11.5070   43.4580   60.9530 C.3    41  LYS41       0.0298
     20  CG       -11.3560   42.1630   61.7190 C.3    41  LYS41       0.0038
     21  CD       -11.0110   42.3330   63.2250 C.3    41  LYS41       0.0206
     22  CE        -9.5680   42.8270   63.4710 C.3    41  LYS41       0.1093
     23  NZ        -9.3580   43.0960   64.9380 N.3    41  LYS41      -0.1314
     24  N        -13.1160   49.4470   64.4290 N.3    44  THR44      -0.1203
     25  CA       -13.8320   49.6990   65.6870 C.3    44  THR44       0.1994
     26  C        -12.9750   50.4600   66.7200 C.2    44  THR44       0.2618
     27  O        -13.3930   51.4940   67.2800 O.2    44  THR44      -0.2717
     28  CB       -14.3490   48.3710   66.3420 C.3    44  THR44       0.1784
     29  OG1      -14.8270   47.4650   65.3340 O.3    44  THR44      -0.2211
     30  CG2      -15.5160   48.6530   67.3030 C.3    44  THR44       0.0376
     31  N        -11.7800   49.9390   66.9650 N.am   45  THR45      -0.1952
     32  CA       -10.9080   50.4420   68.0290 C.3    45  THR45       0.1897
     33  C        -10.4690   51.8900   67.7370 C.2    45  THR45       0.2313
     34  O        -10.4270   52.7320   68.6250 O.2    45  THR45      -0.2863
     35  CB        -9.7040   49.4880   68.2070 C.3    45  THR45       0.1794
     36  OG1      -10.1960   48.1480   68.4520 O.3    45  THR45      -0.2208
     37  CG2       -8.8050   49.9500   69.3660 C.3    45  THR45       0.0378
     38  N        -11.4160   47.6870   75.7350 N.3    69  HIS69      -0.1241
     39  CA       -12.4710   46.7310   76.0440 C.3    69  HIS69       0.1621
     40  C        -13.1900   46.9840   77.3680 C.2    69  HIS69       0.2264
     41  O        -14.3460   46.5770   77.5390 O.2    69  HIS69      -0.2867
     42  CB       -11.9640   45.2820   75.9410 C.3    69  HIS69       0.0745
     43  CG       -11.0070   44.8830   77.0180 C.ar   69  HIS69       0.0817
     44  ND1       -9.6740   45.2320   76.9950 N.ar   69  HIS69      -0.2268
     45  CD2      -11.1790   44.1210   78.1270 C.ar   69  HIS69       0.1154
     46  CE1       -9.0710   44.7300   78.0600 C.ar   69  HIS69       0.1986
     47  NE2       -9.9620   44.0520   78.7640 N.ar   69  HIS69      -0.2212
     48  N        -19.1510   46.0230   74.9190 N.3    74  PHE74      -0.1241
     49  CA       -19.3030   45.3080   73.6460 C.3    74  PHE74       0.1605
     50  C        -20.5860   44.4960   73.8390 C.2    74  PHE74       0.2264
     51  O        -20.5670   43.3880   74.3890 O.2    74  PHE74      -0.2867
     52  CB       -18.0410   44.4270   73.4480 C.3    74  PHE74       0.0534
     53  CG       -17.9810   43.6120   72.1440 C.ar   74  PHE74      -0.0203
     54  CD1      -16.8120   42.8320   71.8820 C.ar   74  PHE74      -0.0042
     55  CD2      -19.0200   43.6050   71.1930 C.ar   74  PHE74      -0.0042
     56  CE1      -16.7040   42.0600   70.7190 C.ar   74  PHE74      -0.0003
     57  CE2      -18.9030   42.8240   70.0050 C.ar   74  PHE74      -0.0003
     58  CZ       -17.7580   42.0540   69.7780 C.ar   74  PHE74      -0.0000
     59  N        -21.1830   40.6590   73.4330 N.3    77  MET77      -0.1245
     60  CA       -20.0330   39.8030   73.8120 C.3    77  MET77       0.1570
     61  C        -20.3260   39.0390   75.1050 C.2    77  MET77       0.2261
     62  O        -20.7870   39.6360   76.0760 O.2    77  MET77      -0.2867
     63  CB       -18.7750   40.6620   73.9550 C.3    77  MET77       0.0387
     64  CG       -17.4340   39.8830   74.2240 C.3    77  MET77       0.0595
     65  SD       -17.1910   39.4700   75.9740 S.3    77  MET77      -0.1393
     66  CE       -17.0660   41.0800   76.7610 C.3    77  MET77       0.0692
     67  N        -17.8340   36.0770   76.7430 N.3    79  ILE79      -0.1245
     68  CA       -16.6240   35.2550   76.5030 C.3    79  ILE79       0.1561
     69  C        -15.9640   34.9370   77.8380 C.2    79  ILE79       0.2260
     70  O        -15.7330   35.8540   78.6270 O.2    79  ILE79      -0.2867
     71  CB       -15.6110   35.9970   75.5960 C.3    79  ILE79       0.0252
     72  CG1      -16.2050   36.2140   74.1960 C.3    79  ILE79       0.0019
     73  CG2      -14.2240   35.2240   75.5300 C.3    79  ILE79       0.0019
     74  CD1      -15.3470   37.0620   73.2720 C.3    79  ILE79       0.0001
     75  N        -13.5870   37.1680   79.9160 N.3    82  LEU82      -0.1245
     76  CA       -13.8410   38.5410   79.4620 C.3    82  LEU82       0.1561
     77  C        -15.1590   39.1190   80.0330 C.2    82  LEU82       0.2260
     78  O        -15.4320   40.3140   79.8920 O.2    82  LEU82      -0.2867
     79  CB       -13.8280   38.6200   77.9170 C.3    82  LEU82       0.0270
     80  CG       -12.4900   38.5210   77.1580 C.3    82  LEU82       0.0019
     81  CD1      -12.6790   38.7210   75.6480 C.3    82  LEU82       0.0001
     82  CD2      -11.4710   39.5200   77.7000 C.3    82  LEU82       0.0001
     83  N        -20.3110   49.5580   71.9390 N.3    99  LYS99      -0.1245
     84  CA       -19.8140   48.8870   70.7310 C.3    99  LYS99       0.1561
     85  C        -20.7350   47.7150   70.3320 C.2    99  LYS99       0.2260
     86  O        -21.2520   46.9900   71.1790 O.2    99  LYS99      -0.2867
     87  CB       -18.3550   48.3880   70.9600 C.3    99  LYS99       0.0271
     88  CG       -17.9190   47.2120   70.0360 C.3    99  LYS99       0.0035
     89  CD       -16.4160   46.8940   70.2130 C.3    99  LYS99       0.0206
     90  CE       -16.0430   45.5610   69.5060 C.3    99  LYS99       0.1093
     91  NZ       -14.5660   45.2170   69.6670 N.3    99  LYS99      -0.1314
     92  N        -21.0030   44.6880   66.8430 N.3   101  HIS101     -0.1241
     93  CA       -20.8240   44.1990   65.4820 C.3   101  HIS101      0.1621
     94  C        -22.1440   43.6440   64.8590 C.2   101  HIS101      0.2264
     95  O        -22.1140   43.0780   63.7670 O.2   101  HIS101     -0.2867
     96  CB       -19.7580   43.0730   65.4000 C.3   101  HIS101      0.0745
     97  CG       -18.3590   43.4700   65.8180 C.ar  101  HIS101      0.0817
     98  ND1      -17.7530   44.6480   65.4340 N.ar  101  HIS101     -0.2268
     99  CD2      -17.4260   42.7870   66.5340 C.ar  101  HIS101      0.1154
    100  CE1      -16.5220   44.6970   65.9320 C.ar  101  HIS101      0.1986
    101  NE2      -16.2960   43.5740   66.5870 N.ar  101  HIS101     -0.2212
    102  N         -9.5340   40.3470   59.1160 N.3   132  TYR132     -0.1241
    103  CA       -10.3120   39.3600   59.8740 C.3   132  TYR132      0.1605
    104  C         -9.5880   37.9960   59.8760 C.2   132  TYR132      0.2264
    105  O         -9.6010   37.2640   60.8870 O.2   132  TYR132     -0.2867
    106  CB       -11.7350   39.2810   59.3050 C.3   132  TYR132      0.0534
    107  CG       -12.8590   38.8030   60.2200 C.ar  132  TYR132     -0.0201
    108  CD1      -12.6080   38.2140   61.4890 C.ar  132  TYR132     -0.0009
    109  CD2      -14.1990   38.8790   59.7870 C.ar  132  TYR132     -0.0009
    110  CE1      -13.6630   37.7660   62.3000 C.ar  132  TYR132      0.0417
    111  CE2      -15.2520   38.4200   60.5940 C.ar  132  TYR132      0.0417
    112  CZ       -14.9800   37.8730   61.8430 C.ar  132  TYR132      0.1957
    113  OH       -16.0070   37.4250   62.6160 O.3   132  TYR132     -0.2866
    114  N         -6.7930   38.2280   62.3940 N.3   135  PHE135     -0.1241
    115  CA        -7.4040   38.3220   63.6940 C.3   135  PHE135      0.1605
    116  C         -7.8130   36.9230   64.1830 C.2   135  PHE135      0.2264
    117  O         -7.5960   36.5950   65.3500 O.2   135  PHE135     -0.2867
    118  CB        -8.6080   39.2570   63.6460 C.3   135  PHE135      0.0534
    119  CG        -9.1710   39.6220   65.0160 C.ar  135  PHE135     -0.0203
    120  CD1       -8.3410   40.1270   66.0340 C.ar  135  PHE135     -0.0042
    121  CD2      -10.5550   39.5420   65.2420 C.ar  135  PHE135     -0.0042
    122  CE1       -8.8830   40.5080   67.2640 C.ar  135  PHE135     -0.0003
    123  CE2      -11.1000   39.9000   66.4620 C.ar  135  PHE135     -0.0003
    124  CZ       -10.2570   40.4060   67.4740 C.ar  135  PHE135     -0.0000
    125  N         -6.5790   35.2740   67.5380 N.3   139  ASN139     -0.1240
    126  CA        -7.6490   35.3350   68.5480 C.3   139  ASN139      0.1653
    127  C         -8.3530   33.9780   68.7120 C.2   139  ASN139      0.2266
    128  O         -9.1290   33.5390   67.8340 O.2   139  ASN139     -0.2867
    129  CB        -8.6330   36.4850   68.2000 C.3   139  ASN139      0.1155
    130  CG        -9.7800   36.6290   69.2080 C.2   139  ASN139      0.2627
    131  OD1      -10.0080   35.7610   70.0330 O.2   139  ASN139     -0.2716
    132  ND2      -10.5060   37.7330   69.1200 N.am  139  ASN139     -0.0877
    133  N        -10.7120   33.0400   70.6670 N.3   141  ALA141     -0.1231
    134  CA       -12.1860   33.0560   70.8450 C.3   141  ALA141      0.1694
    135  C        -12.9290   32.8410   69.5110 C.2   141  ALA141      0.2591
    136  O        -14.1430   32.5530   69.4890 O.2   141  ALA141     -0.2718
    137  CB       -12.6470   34.3480   71.5500 C.3   141  ALA141      0.0304
    138  N        -12.1870   32.9320   68.4080 N.am  142  LEU142     -0.1980
    139  CA       -12.7560   32.7900   67.0620 C.3   142  LEU142      0.1596
    140  C        -12.3260   31.4580   66.4450 C.2   142  LEU142      0.2287
    141  O        -11.3790   30.8280   66.9500 O.2   142  LEU142     -0.2864
    142  CB       -12.3290   33.9760   66.1800 C.3   142  LEU142      0.0297
    143  CG       -12.9420   35.3420   66.5480 C.3   142  LEU142      0.0022
    144  CD1      -12.2820   36.4600   65.7840 C.3   142  LEU142      0.0001
    145  CD2      -14.4470   35.3470   66.3310 C.3   142  LEU142      0.0001
    146  N        -20.5380   36.9580   62.8400 N.3   162  TRP162     -0.1241
    147  CA       -21.3210   38.1630   62.4760 C.3   162  TRP162      0.1605
    148  C        -21.8230   38.1490   61.0100 C.2   162  TRP162      0.2264
    149  O        -22.4690   39.0970   60.5460 O.2   162  TRP162     -0.2867
    150  CB       -20.6120   39.4560   62.8560 C.3   162  TRP162      0.0550
    151  CG       -20.6690   39.6820   64.3250 C.ar  162  TRP162      0.0003
    152  CD1      -21.7040   40.2660   65.0320 C.ar  162  TRP162      0.0946
    153  CD2      -19.6650   39.3190   65.3000 C.ar  162  TRP162      0.0152
    154  NE1      -21.3860   40.3040   66.3860 N.ar  162  TRP162     -0.2442
    155  CE2      -20.1480   39.7280   66.5760 C.ar  162  TRP162      0.0810
    156  CE3      -18.4000   38.7010   65.2170 C.ar  162  TRP162      0.0012
    157  CZ2      -19.4060   39.5300   67.7720 C.ar  162  TRP162      0.0191
    158  CZ3      -17.6630   38.4910   66.4110 C.ar  162  TRP162      0.0001
    159  CH2      -18.1720   38.9020   67.6630 C.ar  162  TRP162      0.0015
    160  N         -4.8990   46.6480   72.6080 N.3   233  TYR233     -0.1241
    161  CA        -5.3270   45.2760   73.0100 C.3   233  TYR233      0.1605
    162  C         -4.2350   44.3890   73.6680 C.2   233  TYR233      0.2264
    163  O         -4.4310   43.1780   73.8260 O.2   233  TYR233     -0.2867
    164  CB        -6.0810   44.5410   71.8660 C.3   233  TYR233      0.0534
    165  CG        -7.5480   44.9670   71.8150 C.ar  233  TYR233     -0.0201
    166  CD1       -7.9240   46.2010   71.2500 C.ar  233  TYR233     -0.0009
    167  CD2       -8.5420   44.1670   72.3820 C.ar  233  TYR233     -0.0009
    168  CE1       -9.2890   46.6170   71.2400 C.ar  233  TYR233      0.0417
    169  CE2       -9.8970   44.5610   72.3590 C.ar  233  TYR233      0.0417
    170  CZ       -10.2530   45.7890   71.8070 C.ar  233  TYR233      0.1957
    171  OH       -11.5750   46.1680   71.8070 O.3   233  TYR233     -0.2866
    172  N         -5.3940   42.2230   76.8600 N.3   236  ILE236     -0.1245
    173  CA        -6.2830   41.0610   76.7640 C.3   236  ILE236      0.1561
    174  C         -5.5430   39.8270   77.2620 C.2   236  ILE236      0.2260
    175  O         -4.3650   39.6820   76.9840 O.2   236  ILE236     -0.2867
    176  CB        -6.8110   40.8670   75.2960 C.3   236  ILE236      0.0252
    177  CG1       -7.8070   41.9700   74.9490 C.3   236  ILE236      0.0019
    178  CG2       -7.4490   39.4680   75.0790 C.3   236  ILE236      0.0019
    179  CD1       -9.0650   41.9440   75.7920 C.3   236  ILE236      0.0001
    180  N         -6.4540   34.3330   75.3420 N.3   240  ILE240     -0.1231
    181  CA        -7.4260   34.7120   74.2970 C.3   240  ILE240      0.1692
    182  C         -6.6800   35.2020   73.0250 C.2   240  ILE240      0.2591
    183  O         -6.8370   34.6280   71.9500 O.2   240  ILE240     -0.2718
    184  CB        -8.4640   35.7850   74.7900 C.3   240  ILE240      0.0266
    185  CG1       -9.1600   35.3560   76.1080 C.3   240  ILE240      0.0019
    186  CG2       -9.5090   36.1190   73.6750 C.3   240  ILE240      0.0020
    187  CD1      -10.3250   34.3500   75.9360 C.3   240  ILE240      0.0001
    188  N         -5.8690   36.2500   73.1660 N.am  241  MET241     -0.1979
    189  CA        -5.1560   36.8250   72.0220 C.3   241  MET241      0.1605
    190  C         -3.6550   36.6550   72.1470 C.2   241  MET241      0.2287
    191  O         -3.0540   37.0300   73.1710 O.2   241  MET241     -0.2864
    192  CB        -5.4780   38.3160   71.8710 C.3   241  MET241      0.0413
    193  CG        -6.9050   38.6450   71.3960 C.3   241  MET241      0.0598
    194  SD        -7.0610   40.4200   71.1560 S.3   241  MET241     -0.1393
    195  CE        -8.8080   40.5420   70.9210 C.3   241  MET241      0.0692
    196  N         -2.6990   42.9970   67.2920 N.3   248  PHE248     -0.1241
    197  CA        -3.9940   43.5710   67.0220 C.3   248  PHE248      0.1605
    198  C         -3.8200   44.7890   66.1290 C.2   248  PHE248      0.2264
    199  O         -4.5660   44.9680   65.1410 O.2   248  PHE248     -0.2867
    200  CB        -4.7040   43.9330   68.3190 C.3   248  PHE248      0.0534
    201  CG        -6.1140   44.3830   68.1230 C.ar  248  PHE248     -0.0203
    202  CD1       -7.1730   43.5010   68.3340 C.ar  248  PHE248     -0.0042
    203  CD2       -6.3890   45.6770   67.7190 C.ar  248  PHE248     -0.0042
    204  CE1       -8.5310   43.9360   68.1640 C.ar  248  PHE248     -0.0003
    205  CE2       -7.7180   46.1180   67.5500 C.ar  248  PHE248     -0.0003
    206  CZ        -8.7860   45.2300   67.7700 C.ar  248  PHE248     -0.0000
@<TRIPOS>BOND
     1   102   103    1
     2   106   103    1
     3   106   107    1
     4   109   107   ar
     5   109   111   ar
     6   103   104    1
     7   104   105    2
     8    18    17    2
     9   107   108   ar
    10   149   148    2
    11    11    10    2
    12   111   112   ar
    13    17    16    1
    14    19    16    1
    15    19    20    1
    16   148   147    1
    17   108   110   ar
    18    16    15    1
    19    20    21    1
    20    10    15   am
    21    10     9    1
    22   112   110   ar
    23   112   113    1
    24    14     8    1
    25    14    13    1
    26     8     9    1
    27   114   115    1
    28   147   146    1
    29   147   150    1
    30     9    12    1
    31    12    13    1
    32   150   151    1
    33    21    22    1
    34    22    23    1
    35   118   115    1
    36   118   119    1
    37   115   116    1
    38    95    94    2
    39   116   117    2
    40   151   152   ar
    41   151   153   ar
    42    24    25    1
    43    94    93    1
    44   119   121   ar
    45   119   120   ar
    46   152   154   ar
    47   199   198    2
    48   156   153   ar
    49   156   158   ar
    50   121   123   ar
    51   153   155   ar
    52    29    28    1
    53    96    93    1
    54    96    97    1
    55    98    97   ar
    56    98   100   ar
    57    93    92    1
    58    25    28    1
    59    25    26    1
    60   144   143    1
    61    97    99   ar
    62   100   101   ar
    63   120   122   ar
    64   198   197    1
    65   142   143    1
    66   142   139    1
    67   145   143    1
    68    28    30    1
    69   154   155   ar
    70   158   159   ar
    71   140   141    2
    72   140   139    1
    73   123   124   ar
    74    99   101   ar
    75   155   157   ar
    76    26    31   am
    77    26    27    2
    78    31    32    1
    79   197   196    1
    80   197   200    1
    81   139   138    1
    82   122   124   ar
    83   125   126    1
    84   205   203   ar
    85   205   206   ar
    86   159   157   ar
    87   203   201   ar
    88    33    32    1
    89    33    34    2
    90   206   204   ar
    91   128   127    2
    92    32    35    1
    93   201   200    1
    94   201   202   ar
    95   204   202   ar
    96   129   126    1
    97   129   130    1
    98    35    36    1
    99    35    37    1
   100   138   135   am
   101     7     1    1
   102     7     6    1
   103   126   127    1
   104     1     2    1
   105   132   130   am
   106   130   131    2
   107     6     5    1
   108   136   135    2
   109    90    91    1
   110    90    89    1
   111   135   134    1
   112     5     2    1
   113     2     3    1
   114    58    57   ar
   115    58    56   ar
   116    57    55   ar
   117    88    89    1
   118    88    87    1
   119    85    84    1
   120    85    86    2
   121   133   134    1
   122    56    54   ar
   123    84    87    1
   124    84    83    1
   125   134   137    1
   126   195   194    1
   127     3     4    2
   128   194   193    1
   129    55    53   ar
   130   168   166   ar
   131   168   170   ar
   132   166   165   ar
   133   193   192    1
   134   171   170    1
   135   170   169   ar
   136   165   164    1
   137   165   167   ar
   138   164   161    1
   139   192   189    1
   140    54    53   ar
   141   183   182    2
   142   189   190    1
   143   189   188    1
   144    53    52    1
   145   190   191    2
   146   169   167   ar
   147   160   161    1
   148   161   162    1
   149   182   188   am
   150   182   181    1
   151    74    72    1
   152    59    60    1
   153    52    49    1
   154    49    50    1
   155    49    48    1
   156   162   163    2
   157   186   184    1
   158    60    63    1
   159    60    61    1
   160    50    51    2
   161    63    64    1
   162    72    71    1
   163    64    65    1
   164   181   184    1
   165   181   180    1
   166   184   185    1
   167   177   176    1
   168   177   179    1
   169   178   176    1
   170    61    62    2
   171   176   173    1
   172    73    71    1
   173    71    68    1
   174    81    80    1
   175    38    39    1
   176   187   185    1
   177    42    39    1
   178    42    43    1
   179    65    66    1
   180    39    40    1
   181    68    67    1
   182    68    69    1
   183   173   172    1
   184   173   174    1
   185   175   174    2
   186    44    43   ar
   187    44    46   ar
   188    43    45   ar
   189    80    82    1
   190    80    79    1
   191    40    41    2
   192    69    70    2
   193    79    76    1
   194    46    47   ar
   195    45    47   ar
   196    76    75    1
   197    76    77    1
   198    78    77    2
