@<TRIPOS>MOLECULE
tmp/2gwlA00.pdb
 221 211 0 0 0
SMALL
GASTEIGER

@<TRIPOS>ATOM
      1  N         20.4180   18.0470   31.7580 N.3    11  SER11      -0.1217
      2  CA        19.5690   17.5500   30.6950 C.3    11  SER11       0.1889
      3  C         18.0860   17.7750   30.8970 C.2    11  SER11       0.2288
      4  O         17.3610   18.0520   29.9350 O.2    11  SER11      -0.2866
      5  CB        19.7710   16.0610   30.5110 C.3    11  SER11       0.2089
      6  OG        18.9470   15.6030   29.4430 O.3    11  SER11      -0.2183
      7  N         19.7300   23.0440   31.8120 N.3    15  TYR15      -0.1241
      8  CA        20.2290   23.6690   30.5760 C.3    15  TYR15       0.1605
      9  C         19.5380   25.0160   30.3750 C.2    15  TYR15       0.2264
     10  O         20.0830   25.8950   29.7370 O.2    15  TYR15      -0.2867
     11  CB        19.9860   22.7690   29.3710 C.3    15  TYR15       0.0534
     12  CG        18.5060   22.6880   29.0630 C.ar   15  TYR15      -0.0201
     13  CD1       17.8700   23.6260   28.2380 C.ar   15  TYR15      -0.0009
     14  CD2       17.7360   21.7540   29.6880 C.ar   15  TYR15      -0.0009
     15  CE1       16.4910   23.5640   28.0470 C.ar   15  TYR15       0.0417
     16  CE2       16.3650   21.6860   29.5020 C.ar   15  TYR15       0.0417
     17  CZ        15.7450   22.5780   28.7230 C.ar   15  TYR15       0.1957
     18  OH        14.3570   22.4080   28.6300 O.3    15  TYR15      -0.2866
     19  N         23.0000   27.6060   30.0700 N.3    19  ASN19      -0.1240
     20  CA        23.5030   28.0500   28.7610 C.3    19  ASN19       0.1653
     21  C         23.4320   29.5580   28.5710 C.2    19  ASN19       0.2266
     22  O         24.3890   30.1650   28.0760 O.2    19  ASN19      -0.2867
     23  CB        22.8340   27.2700   27.6080 C.3    19  ASN19       0.1155
     24  CG        23.2000   25.7720   27.6660 C.2    19  ASN19       0.2627
     25  OD1       24.2470   25.4140   28.1320 O.2    19  ASN19      -0.2716
     26  ND2       22.3740   24.9560   27.0980 N.am   19  ASN19      -0.0877
     27  N         26.6360   32.0640   28.2690 N.3    23  ARG23      -0.1245
     28  CA        26.7670   32.9080   27.1110 C.3    23  ARG23       0.1563
     29  C         26.8810   34.3660   27.4970 C.2    23  ARG23       0.2260
     30  O         27.2770   35.1730   26.6850 O.2    23  ARG23      -0.2867
     31  CB        25.6030   32.7220   26.1360 C.3    23  ARG23       0.0307
     32  CG        25.6420   31.4230   25.3980 C.3    23  ARG23       0.0489
     33  CD        24.3130   31.1160   24.7240 C.3    23  ARG23       0.2205
     34  NE        24.4620   29.9020   23.9140 N.pl3  23  ARG23      -0.0865
     35  CZ        23.5320   28.9790   23.7060 C.cat  23  ARG23       0.5346
     36  NH1       22.3160   29.1160   24.2080 N.pl3  23  ARG23       0.1354
     37  NH2       23.8120   27.9150   22.9510 N.pl3  23  ARG23       0.1354
     38  N         24.1490   35.9760   28.4840 N.3    25  ASP25      -0.1239
     39  CA        22.8060   36.4980   28.2450 C.3    25  ASP25       0.1674
     40  C         22.0970   36.6920   29.5800 C.2    25  ASP25       0.2266
     41  O         22.5020   36.1130   30.5850 O.2    25  ASP25      -0.2867
     42  CB        21.9850   35.5170   27.3910 C.3    25  ASP25       0.1410
     43  CG        22.6240   35.2270   26.0250 C.2    25  ASP25       0.3668
     44  OD1       23.2580   36.1410   25.4680 O.co2  25  ASP25      -0.2456
     45  OD2       22.5000   34.0750   25.5330 O.co2  25  ASP25      -0.2456
     46  N         25.2710   16.7790   14.0040 N.3    79  TYR79      -0.1227
     47  CA        24.3860   17.8210   13.4370 C.3    79  TYR79       0.1736
     48  C         23.7310   18.6430   14.5000 C.2    79  TYR79       0.2595
     49  O         23.4480   18.1530   15.6190 O.2    79  TYR79      -0.2718
     50  CB        23.2870   17.2180   12.5250 C.3    79  TYR79       0.0548
     51  CG        23.8410   16.1630   11.6600 C.ar   79  TYR79      -0.0200
     52  CD1       24.5900   16.4870   10.5200 C.ar   79  TYR79      -0.0009
     53  CD2       23.6670   14.8250   11.9790 C.ar   79  TYR79      -0.0009
     54  CE1       25.1450   15.4840    9.7040 C.ar   79  TYR79       0.0417
     55  CE2       24.2270   13.8160   11.1860 C.ar   79  TYR79       0.0417
     56  CZ        24.9440   14.1770   10.0400 C.ar   79  TYR79       0.1957
     57  OH        25.4860   13.2000    9.2720 O.3    79  TYR79      -0.2866
     58  N         23.4920   19.9040   14.1500 N.am   80  ARG80      -0.1966
     59  CA        22.8060   20.8530   15.0300 C.3    80  ARG80       0.1729
     60  C         22.0020   21.8740   14.2220 C.2    80  ARG80       0.2617
     61  O         22.5210   22.4870   13.3010 O.2    80  ARG80      -0.2715
     62  CB        23.8840   21.5120   15.8830 C.3    80  ARG80       0.0348
     63  CG        23.4250   22.5080   16.9230 C.3    80  ARG80       0.0492
     64  CD        24.6400   22.8000   17.8250 C.3    80  ARG80       0.2205
     65  NE        24.4940   24.0030   18.6690 N.pl3  80  ARG80      -0.0865
     66  CZ        23.6130   24.1780   19.6650 C.cat  80  ARG80       0.5346
     67  NH1       22.7440   23.2410   20.0090 N.pl3  80  ARG80       0.1354
     68  NH2       23.6120   25.3350   20.3410 N.pl3  80  ARG80       0.1354
     69  N         20.7450   22.0370   14.5550 N.am   81  GLY81      -0.1940
     70  CA        19.8480   22.9810   13.8750 C.3    81  GLY81       0.2014
     71  C         19.8530   24.2140   14.7450 C.2    81  GLY81       0.2639
     72  O         19.7660   24.1040   16.0210 O.2    81  GLY81      -0.2714
     73  N         19.9370   25.3870   14.1320 N.am   82  LEU82      -0.1963
     74  CA        19.9320   26.6670   14.9060 C.3    82  LEU82       0.1728
     75  C         18.9680   27.6030   14.2150 C.2    82  LEU82       0.2616
     76  O         18.8170   27.5950   12.9730 O.2    82  LEU82      -0.2715
     77  CB        21.3200   27.3790   14.9670 C.3    82  LEU82       0.0311
     78  CG        22.5740   26.7840   15.6490 C.3    82  LEU82       0.0022
     79  CD1       23.7570   27.7410   15.5590 C.3    82  LEU82       0.0001
     80  CD2       22.3510   26.3940   17.1060 C.3    82  LEU82       0.0001
     81  N         18.3520   28.4840   14.9930 N.am   83  LYS83      -0.1963
     82  CA        17.5870   29.5760   14.4510 C.3    83  LYS83       0.1728
     83  C         18.4800   30.7920   14.5750 C.2    83  LYS83       0.2616
     84  O         18.6670   31.3060   15.6880 O.2    83  LYS83      -0.2715
     85  CB        16.3370   29.8010   15.2670 C.3    83  LYS83       0.0311
     86  CG        15.4730   30.9100   14.7710 C.3    83  LYS83       0.0038
     87  CD        14.2060   31.0440   15.6420 C.3    83  LYS83       0.0206
     88  CE        12.9590   31.2910   14.8070 C.3    83  LYS83       0.1093
     89  NZ        11.7310   31.1450   15.6310 N.3    83  LYS83      -0.1314
     90  N         19.0520   31.2140   13.4560 N.am   84  LEU84      -0.1977
     91  CA        19.9570   32.3680   13.4410 C.3    84  LEU84       0.1596
     92  C         19.4180   33.6310   12.7620 C.2    84  LEU84       0.2287
     93  O         20.0460   34.6820   12.8170 O.2    84  LEU84      -0.2864
     94  CB        21.2500   31.9910   12.7910 C.3    84  LEU84       0.0297
     95  CG        22.1950   31.0150   13.4740 C.3    84  LEU84       0.0022
     96  CD1       23.3920   30.8780   12.6060 C.3    84  LEU84       0.0001
     97  CD2       22.5660   31.4020   14.9150 C.3    84  LEU84       0.0001
     98  N         16.8530   35.4010   13.5930 N.3    86  LYS86      -0.1245
     99  CA        16.2620   36.4010   14.5030 C.3    86  LYS86       0.1561
    100  C         17.0910   37.7050   14.5170 C.2    86  LYS86       0.2260
    101  O         18.3170   37.6510   14.5910 O.2    86  LYS86      -0.2867
    102  CB        16.2000   35.8770   15.9460 C.3    86  LYS86       0.0271
    103  CG        15.9250   34.3700   16.1560 C.3    86  LYS86       0.0035
    104  CD        15.8760   34.1080   17.6970 C.3    86  LYS86       0.0206
    105  CE        15.9390   32.6260   18.0830 C.3    86  LYS86       0.1093
    106  NZ        16.5780   32.4230   19.4560 N.3    86  LYS86      -0.1314
    107  N         19.9860   38.1800   16.8490 N.3    89  LEU89      -0.1245
    108  CA        21.1180   37.2720   16.6310 C.3    89  LEU89       0.1561
    109  C         21.9320   37.6790   15.4170 C.2    89  LEU89       0.2260
    110  O         22.7400   36.8970   14.9040 O.2    89  LEU89      -0.2867
    111  CB        20.6020   35.8330   16.4520 C.3    89  LEU89       0.0270
    112  CG        20.1220   35.2060   17.7590 C.3    89  LEU89       0.0019
    113  CD1       19.5930   33.8230   17.5240 C.3    89  LEU89       0.0001
    114  CD2       21.2910   35.1790   18.7830 C.3    89  LEU89       0.0001
    115  N         25.6150   37.1110   15.8400 N.3    92  VAL92      -0.1245
    116  CA        25.9030   35.6900   15.8860 C.3    92  VAL92       0.1561
    117  C         25.8340   35.1100   14.4650 C.2    92  VAL92       0.2260
    118  O         26.6930   34.3390   14.0580 O.2    92  VAL92      -0.2867
    119  CB        24.9410   34.9260   16.8220 C.3    92  VAL92       0.0252
    120  CG1       25.2300   33.4330   16.7940 C.3    92  VAL92       0.0019
    121  CG2       25.0390   35.4400   18.2650 C.3    92  VAL92       0.0019
    122  N         28.8950   33.2220   12.3420 N.3    96  TYR96      -0.1241
    123  CA        28.7510   31.8800   11.7770 C.3    96  TYR96       0.1605
    124  C         28.7690   31.8460   10.2660 C.2    96  TYR96       0.2264
    125  O         28.8260   30.7890    9.6960 O.2    96  TYR96      -0.2867
    126  CB        27.4050   31.2610   12.1840 C.3    96  TYR96       0.0534
    127  CG        27.4900   30.4760   13.4870 C.ar   96  TYR96      -0.0201
    128  CD1       27.5410   31.1200   14.7180 C.ar   96  TYR96      -0.0009
    129  CD2       27.5320   29.0940   13.4580 C.ar   96  TYR96      -0.0009
    130  CE1       27.5990   30.3550   15.9050 C.ar   96  TYR96       0.0417
    131  CE2       27.5620   28.3460   14.5970 C.ar   96  TYR96       0.0417
    132  CZ        27.6190   28.9760   15.8200 C.ar   96  TYR96       0.1957
    133  OH        27.6890   28.1500   16.9510 O.3    96  TYR96      -0.2866
    134  N         32.0420   28.4580   21.3190 N.3   105  ASP105     -0.1239
    135  CA        30.7320   28.3910   21.9010 C.3   105  ASP105      0.1674
    136  C         30.8670   28.2780   23.4180 C.2   105  ASP105      0.2266
    137  O         31.4290   27.2960   23.9100 O.2   105  ASP105     -0.2867
    138  CB        29.9560   27.2350   21.4030 C.3   105  ASP105      0.1410
    139  CG        28.4670   27.3290   21.8200 C.2   105  ASP105      0.3668
    140  OD1       28.0700   27.8400   22.9780 O.co2 105  ASP105     -0.2456
    141  OD2       27.6640   27.0110   20.9870 O.co2 105  ASP105     -0.2456
    142  N         27.2270   24.7720   26.9380 N.3   108  PHE108     -0.1241
    143  CA        27.3200   23.3860   26.5500 C.3   108  PHE108      0.1605
    144  C         26.6630   23.3400   25.1450 C.2   108  PHE108      0.2264
    145  O         25.6790   24.0460   24.9020 O.2   108  PHE108     -0.2867
    146  CB        26.5430   22.5170   27.5140 C.3   108  PHE108      0.0534
    147  CG        27.2210   22.3170   28.8800 C.ar  108  PHE108     -0.0203
    148  CD1       27.8980   21.1440   29.1320 C.ar  108  PHE108     -0.0042
    149  CD2       27.0680   23.2370   29.8740 C.ar  108  PHE108     -0.0042
    150  CE1       28.4990   20.9190   30.3660 C.ar  108  PHE108     -0.0003
    151  CE2       27.6890   23.0230   31.1330 C.ar  108  PHE108     -0.0003
    152  CZ        28.3710   21.8580   31.3490 C.ar  108  PHE108     -0.0000
    153  N         24.7330   21.1470   22.3660 N.3   110  SER110     -0.1202
    154  CA        23.9170   19.9950   22.0700 C.3   110  SER110      0.2020
    155  C         23.8950   19.6730   20.5380 C.2   110  SER110      0.2619
    156  O         23.6150   20.5550   19.7170 O.2   110  SER110     -0.2717
    157  CB        22.5140   20.2540   22.5850 C.3   110  SER110      0.2103
    158  OG        21.7570   19.0990   22.4390 O.3   110  SER110     -0.2182
    159  N         24.2420   18.4500   20.1940 N.am  111  THR111     -0.1938
    160  CA        24.2710   18.0210   18.8070 C.3   111  THR111      0.2028
    161  C         23.5850   16.6440   18.7420 C.2   111  THR111      0.2642
    162  O         23.3020   16.0120   19.7470 O.2   111  THR111     -0.2714
    163  CB        25.6970   17.8980   18.2620 C.3   111  THR111      0.1808
    164  OG1       26.3480   16.7740   18.8180 O.3   111  THR111     -0.2208
    165  CG2       26.5520   19.1130   18.4590 C.3   111  THR111      0.0379
    166  N         23.2740   16.1890   17.5280 N.am  112  SER112     -0.1949
    167  CA        22.7390   14.8560   17.3260 C.3   112  SER112      0.1924
    168  C         23.6750   14.1060   16.3870 C.2   112  SER112      0.2314
    169  O         24.0960   14.6540   15.3410 O.2   112  SER112     -0.2863
    170  CB        21.3670   14.9040   16.7010 C.3   112  SER112      0.2116
    171  OG        21.0730   13.5840   16.1990 O.3   112  SER112     -0.2180
    172  N         19.6350   15.9080   11.7810 N.3   116  ALA116     -0.1231
    173  CA        19.5130   17.3140   12.0160 C.3   116  ALA116      0.1694
    174  C         18.0810   17.6960   12.1690 C.2   116  ALA116      0.2592
    175  O         17.2390   17.3850   11.3240 O.2   116  ALA116     -0.2718
    176  CB        20.0850   18.0710   10.8190 C.3   116  ALA116      0.0304
    177  N         17.8280   18.4500   13.2130 N.am  117  TRP117     -0.1976
    178  CA        16.5640   19.0550   13.4410 C.3   117  TRP117      0.1640
    179  C         16.4200   20.3130   12.5550 C.2   117  TRP117      0.2290
    180  O         17.2570   21.2080   12.5960 O.2   117  TRP117     -0.2864
    181  CB        16.4920   19.3550   14.9220 C.3   117  TRP117      0.0576
    182  CG        16.3990   18.0020   15.6770 C.ar  117  TRP117      0.0006
    183  CD1       17.4370   17.2480   16.1620 C.ar  117  TRP117      0.0946
    184  CD2       15.2140   17.2330   15.8810 C.ar  117  TRP117      0.0152
    185  NE1       16.9570   16.0800   16.7240 N.ar  117  TRP117     -0.2442
    186  CE2       15.5920   16.0540   16.5710 C.ar  117  TRP117      0.0810
    187  CE3       13.8550   17.4570   15.6190 C.ar  117  TRP117      0.0012
    188  CZ2       14.6650   15.1050   16.9730 C.ar  117  TRP117      0.0191
    189  CZ3       12.9440   16.5150   16.0310 C.ar  117  TRP117      0.0001
    190  CH2       13.3480   15.3490   16.6910 C.ar  117  TRP117      0.0015
    191  N         15.8600   23.7060   10.9210 N.3   119  ASN119     -0.1240
    192  CA        15.7120   25.0950   11.3750 C.3   119  ASN119      0.1653
    193  C         16.3070   25.9890   10.2650 C.2   119  ASN119      0.2266
    194  O         16.7770   25.4200    9.2590 O.2   119  ASN119     -0.2867
    195  CB        16.5220   25.2530   12.6750 C.3   119  ASN119      0.1155
    196  CG        15.9380   26.2510   13.5720 C.2   119  ASN119      0.2627
    197  OD1       15.4290   27.3230   13.1150 O.2   119  ASN119     -0.2716
    198  ND2       15.9170   25.9110   14.8850 N.am  119  ASN119     -0.0877
    199  N         15.8910    9.9450   21.3890 N.3   145  GLU145     -0.1231
    200  CA        16.6060   10.6670   20.3460 C.3   145  GLU145      0.1699
    201  C         18.0390   10.8070   20.8550 C.2   145  GLU145      0.2592
    202  O         18.2700   11.2950   21.9580 O.2   145  GLU145     -0.2718
    203  CB        15.9900   12.0450   20.0630 C.3   145  GLU145      0.0402
    204  CG        14.4780   12.0430   19.7100 C.3   145  GLU145      0.1161
    205  CD        14.1350   11.5440   18.3170 C.2   145  GLU145      0.3649
    206  OE1       15.0550   11.2850   17.5110 O.co2 145  GLU145     -0.2457
    207  OE2       12.9110   11.4070   18.0120 O.co2 145  GLU145     -0.2457
    208  N         19.0040   10.3510   20.0750 N.am  146  ALA146     -0.1966
    209  CA        20.3860   10.4770   20.4550 C.3   146  ALA146      0.1728
    210  C         20.8750   11.9360   20.5510 C.2   146  ALA146      0.2616
    211  O         20.4060   12.8550   19.8570 O.2   146  ALA146     -0.2715
    212  CB        21.2900    9.6410   19.5510 C.3   146  ALA146      0.0334
    213  N         21.8210   12.1220   21.4680 N.am  147  GLU147     -0.1977
    214  CA        22.4280   13.4330   21.7440 C.3   147  GLU147      0.1602
    215  C         23.8980   13.2900   22.1160 C.2   147  GLU147      0.2287
    216  O         24.2700   12.5920   23.0610 O.2   147  GLU147     -0.2864
    217  CB        21.6750   14.1980   22.8370 C.3   147  GLU147      0.0415
    218  CG        22.3240   15.5360   23.1870 C.3   147  GLU147      0.1163
    219  CD        21.5170   16.4360   24.0840 C.2   147  GLU147      0.3649
    220  OE1       20.4370   16.0480   24.5260 O.co2 147  GLU147     -0.2457
    221  OE2       21.9980   17.5320   24.3630 O.co2 147  GLU147     -0.2457
@<TRIPOS>BOND
     1   194   193    2
     2    57    56    1
     3   125   124    2
     4    54    56   ar
     5    54    52   ar
     6    56    55   ar
     7   193   192    1
     8   124   123    1
     9    52    51   ar
    10   176   173    1
    11   191   192    1
    12    55    53   ar
    13   175   174    2
    14   192   195    1
    15    51    53   ar
    16    51    50    1
    17   123   126    1
    18   123   122    1
    19   172   173    1
    20   173   174    1
    21   174   177   am
    22   126   127    1
    23    50    47    1
    24   179   180    2
    25   179   178    1
    26    96    95    1
    27   195   196    1
    28    92    93    2
    29    92    91    1
    30    94    91    1
    31    94    95    1
    32    76    75    2
    33   197   196    2
    34   177   178    1
    35    61    60    2
    36    47    46    1
    37    47    48    1
    38   178   181    1
    39    91    90    1
    40    90    83   am
    41   129   127   ar
    42   129   131   ar
    43    95    97    1
    44   127   128   ar
    45   196   198   am
    46    98    99    1
    47    70    69    1
    48    70    71    1
    49   118   117    2
    50    73    71   am
    51    73    74    1
    52    58    48   am
    53    58    59    1
    54    75    74    1
    55    75    81   am
    56    60    69   am
    57    60    59    1
    58    82    83    1
    59    82    81    1
    60    82    85    1
    61   117   116    1
    62    48    49    2
    63    99   100    1
    64    99   102    1
    65   100   101    2
    66    83    84    2
    67   131   132   ar
    68   128   130   ar
    69    71    72    2
    70    86    85    1
    71    86    87    1
    72    88    89    1
    73    88    87    1
    74   110   109    2
    75    74    77    1
    76   181   182    1
    77    77    78    1
    78    59    62    1
    79   169   168    2
    80   109   108    1
    81    79    78    1
    82   187   184   ar
    83   187   189   ar
    84    78    80    1
    85   182   184   ar
    86   182   183   ar
    87   132   130   ar
    88   132   133    1
    89   115   116    1
    90   184   186   ar
    91    62    63    1
    92   116   119    1
    93   102   103    1
    94   189   190   ar
    95   103   104    1
    96   183   185   ar
    97   171   170    1
    98   168   167    1
    99   111   108    1
   100   111   112    1
   101   186   185   ar
   102   186   188   ar
   103   108   107    1
   104   190   188   ar
   105   170   167    1
   106   120   119    1
   107   119   121    1
   108    63    64    1
   109   167   166    1
   110   206   205   ar
   111   113   112    1
   112   166   161   am
   113   104   105    1
   114   112   114    1
   115    64    65    1
   116   207   205   ar
   117   105   106    1
   118   163   165    1
   119   163   160    1
   120   163   164    1
   121   205   204    1
   122    65    66    2
   123   161   160    1
   124   161   162    2
   125   160   159    1
   126   212   209    1
   127    66    67    1
   128    66    68    1
   129   204   203    1
   130   156   155    2
   131   211   210    2
   132   203   200    1
   133   208   209    1
   134   208   201   am
   135   159   155   am
   136   200   201    1
   137   200   199    1
   138   209   210    1
   139   155   154    1
   140   210   213   am
   141   201   202    2
   142   141   139   ar
   143   134   135    1
   144   138   139    1
   145   138   135    1
   146   213   214    1
   147   214   215    1
   148   214   217    1
   149   139   140   ar
   150   135   136    1
   151   154   153    1
   152   154   157    1
   153   215   216    2
   154   158   157    1
   155   217   218    1
   156    37    35    1
   157   218   219    1
   158   136   137    2
   159    35    34    2
   160    35    36    1
   161    34    33    1
   162   219   221   ar
   163   219   220   ar
   164    33    32    1
   165   145   144    2
   166   144   143    1
   167    32    31    1
   168    44    43   ar
   169    45    43   ar
   170    43    42    1
   171    31    28    1
   172   143   142    1
   173   143   146    1
   174    30    29    2
   175    26    24   am
   176    28    29    1
   177    28    27    1
   178    42    39    1
   179   146   147    1
   180    23    24    1
   181    23    20    1
   182    24    25    2
   183    15    13   ar
   184    15    17   ar
   185    22    21    2
   186    13    12   ar
   187    39    38    1
   188    39    40    1
   189    21    20    1
   190    18    17    1
   191    17    16   ar
   192    20    19    1
   193   147   148   ar
   194   147   149   ar
   195    12    11    1
   196    12    14   ar
   197   148   150   ar
   198    11     8    1
   199     6     5    1
   200    16    14   ar
   201    40    41    2
   202    10     9    2
   203   149   151   ar
   204     4     3    2
   205   150   152   ar
   206     9     8    1
   207     5     2    1
   208     8     7    1
   209     2     3    1
   210     2     1    1
   211   151   152   ar
