@<TRIPOS>MOLECULE
tmp/2gx4A00.pdb
 198 196 0 0 0
SMALL
GASTEIGER

@<TRIPOS>ATOM
      1  N         14.5050  -11.6400   25.5050 N.3    27  LEU27      -0.1245
      2  CA        13.3790  -10.8820   24.9730 C.3    27  LEU27       0.1561
      3  C         12.2440  -11.8220   24.5760 C.2    27  LEU27       0.2260
      4  O         12.3560  -13.0400   24.7340 O.2    27  LEU27      -0.2867
      5  CB        13.8300  -10.0220   23.7890 C.3    27  LEU27       0.0270
      6  CG        14.7780  -10.6110   22.7470 C.3    27  LEU27       0.0019
      7  CD1       14.0670  -11.6720   21.9240 C.3    27  LEU27       0.0001
      8  CD2       15.2700   -9.4880   21.8430 C.3    27  LEU27       0.0001
      9  N         18.4040   -8.6620   16.9240 N.3    41  HIS41      -0.1241
     10  CA        19.3750   -8.0400   17.8160 C.3    41  HIS41       0.1621
     11  C         19.5380   -8.8010   19.1330 C.2    41  HIS41       0.2264
     12  O         20.3200   -8.4090   19.9950 O.2    41  HIS41      -0.2867
     13  CB        19.0520   -6.5470   18.0430 C.3    41  HIS41       0.0745
     14  CG        17.9290   -6.2720   18.9970 C.ar   41  HIS41       0.0817
     15  ND1       16.9180   -5.3790   18.7060 N.ar   41  HIS41      -0.2268
     16  CD2       17.7110   -6.6810   20.2700 C.ar   41  HIS41       0.1154
     17  CE1       16.1280   -5.2510   19.7580 C.ar   41  HIS41       0.1986
     18  NE2       16.5880   -6.0290   20.7210 N.ar   41  HIS41      -0.2212
     19  N         23.0830   -9.9090   19.9040 N.3    44  CYS44      -0.1235
     20  CA        24.1010   -8.8860   20.1270 C.3    44  CYS44       0.1677
     21  C         24.5750   -8.8370   21.5700 C.2    44  CYS44       0.2270
     22  O         23.8550   -9.2160   22.4930 O.2    44  CYS44      -0.2867
     23  CB        23.5720   -7.5000   19.7500 C.3    44  CYS44       0.0956
     24  SG        23.3810   -7.2200   17.9930 S.3    44  CYS44      -0.0801
     25  N         26.3370   -3.9010   19.7720 N.3    49  MET49      -0.1245
     26  CA        25.2280   -2.9860   19.5020 C.3    49  MET49       0.1570
     27  C         25.4800   -1.7280   18.6650 C.2    49  MET49       0.2261
     28  O         24.5760   -1.2620   17.9690 O.2    49  MET49      -0.2867
     29  CB        24.5790   -2.5730   20.8220 C.3    49  MET49       0.0387
     30  CG        24.1660   -3.7440   21.6940 C.3    49  MET49       0.0595
     31  SD        23.1430   -3.2380   23.0890 S.3    49  MET49      -0.1393
     32  CE        24.3170   -2.2220   24.0470 C.3    49  MET49       0.0692
     33  N         25.2350   -8.7000   11.6310 N.3    54  TYR54      -0.1241
     34  CA        24.4260   -9.8520   11.9830 C.3    54  TYR54       0.1605
     35  C         24.7730  -11.1590   11.2970 C.2    54  TYR54       0.2264
     36  O         24.7820  -12.2110   11.9370 O.2    54  TYR54      -0.2867
     37  CB        22.9480   -9.5130   11.7800 C.3    54  TYR54       0.0534
     38  CG        22.4810   -8.4260   12.7220 C.ar   54  TYR54      -0.0201
     39  CD1       22.5590   -7.0780   12.3650 C.ar   54  TYR54      -0.0009
     40  CD2       22.0090   -8.7430   13.9940 C.ar   54  TYR54      -0.0009
     41  CE1       22.1770   -6.0740   13.2570 C.ar   54  TYR54       0.0417
     42  CE2       21.6290   -7.7530   14.8890 C.ar   54  TYR54       0.0417
     43  CZ        21.7140   -6.4210   14.5160 C.ar   54  TYR54       0.1957
     44  OH        21.3440   -5.4460   15.4100 O.3    54  TYR54      -0.2866
     45  N          6.8480    1.1280   26.2450 N.3   140  PHE140     -0.1227
     46  CA         7.7560   -0.0200   26.2960 C.3   140  PHE140      0.1736
     47  C          8.9520    0.2490   27.2010 C.2   140  PHE140      0.2595
     48  O          9.4940    1.3520   27.2080 O.2   140  PHE140     -0.2718
     49  CB         8.3350   -0.3330   24.9110 C.3   140  PHE140      0.0547
     50  CG         7.3230   -0.7660   23.8890 C.ar  140  PHE140     -0.0202
     51  CD1        6.8280    0.1370   22.9540 C.ar  140  PHE140     -0.0042
     52  CD2        6.9220   -2.0920   23.8090 C.ar  140  PHE140     -0.0042
     53  CE1        5.9560   -0.2770   21.9490 C.ar  140  PHE140     -0.0003
     54  CE2        6.0450   -2.5150   22.8020 C.ar  140  PHE140     -0.0003
     55  CZ         5.5670   -1.6000   21.8710 C.ar  140  PHE140     -0.0000
     56  N          9.3680   -0.7740   27.9390 N.am  141  LEU141     -0.1966
     57  CA        10.5280   -0.6870   28.8230 C.3   141  LEU141      0.1728
     58  C         11.5250   -1.7260   28.3220 C.2   141  LEU141      0.2616
     59  O         11.2290   -2.4660   27.3820 O.2   141  LEU141     -0.2715
     60  CB        10.1420   -1.0130   30.2700 C.3   141  LEU141      0.0311
     61  CG         9.1430   -0.0870   30.9670 C.3   141  LEU141      0.0022
     62  CD1        8.8290   -0.6070   32.3720 C.3   141  LEU141      0.0001
     63  CD2        9.7250    1.3090   31.0380 C.3   141  LEU141      0.0001
     64  N         12.7020   -1.7860   28.9400 N.am  142  ASN142     -0.1958
     65  CA        13.7030   -2.7600   28.5240 C.3   142  ASN142      0.1819
     66  C         13.1110   -4.1570   28.6840 C.2   142  ASN142      0.2622
     67  O         12.4570   -4.4440   29.6820 O.2   142  ASN142     -0.2715
     68  CB        14.9630   -2.6470   29.3760 C.3   142  ASN142      0.1195
     69  CG        16.1830   -3.2070   28.6750 C.2   142  ASN142      0.2630
     70  OD1       16.1210   -4.2600   28.0270 O.2   142  ASN142     -0.2716
     71  ND2       17.3080   -2.5050   28.7980 N.am  142  ASN142     -0.0877
     72  N         13.3390   -5.0150   27.6960 N.am  143  GLY143     -0.1940
     73  CA        12.8040   -6.3620   27.7550 C.3   143  GLY143      0.2014
     74  C         11.5220   -6.5300   26.9600 C.2   143  GLY143      0.2640
     75  O         10.9790   -7.6300   26.8840 O.2   143  GLY143     -0.2714
     76  N         11.0270   -5.4480   26.3630 N.am  144  SER144     -0.1935
     77  CA         9.7960   -5.5290   25.5840 C.3   144  SER144      0.2055
     78  C          9.9670   -5.9690   24.1170 C.2   144  SER144      0.2643
     79  O          8.9830   -6.2940   23.4640 O.2   144  SER144     -0.2714
     80  CB         9.0360   -4.1910   25.6540 C.3   144  SER144      0.2130
     81  OG         9.8210   -3.0970   25.2060 O.3   144  SER144     -0.2179
     82  N         11.2040   -5.9820   23.6100 N.am  145  CYS145     -0.1967
     83  CA        11.5230   -6.3960   22.2260 C.3   145  CYS145      0.1712
     84  C         10.8540   -7.7460   22.0190 C.2   145  CYS145      0.2296
     85  O         10.8080   -8.5750   22.9250 O.2   145  CYS145     -0.2864
     86  CB        13.0650   -6.3610   22.1090 C.3   145  CYS145      0.0983
     87  SG        13.1180   -4.6400   22.4410 S.3   145  CYS145     -0.0798
     88  N          8.2610   -5.2580   18.0690 N.3   163  HIS163     -0.1226
     89  CA         9.0520   -4.1830   18.6600 C.3   163  HIS163      0.1752
     90  C         10.5530   -4.4440   18.7130 C.2   163  HIS163      0.2596
     91  O         10.9810   -5.5430   19.0560 O.2   163  HIS163     -0.2718
     92  CB         8.5190   -3.8900   20.0660 C.3   163  HIS163      0.0759
     93  CG         9.1230   -2.6750   20.6880 C.ar  163  HIS163      0.0818
     94  ND1        9.1370   -1.4500   20.0570 N.ar  163  HIS163     -0.2268
     95  CD2        9.7700   -2.5020   21.8630 C.ar  163  HIS163      0.1154
     96  CE1        9.7730   -0.5750   20.8150 C.ar  163  HIS163      0.1986
     97  NE2       10.1690   -1.1890   21.9160 N.ar  163  HIS163     -0.2212
     98  N         11.3460   -3.4190   18.3920 N.am  164  HIS164     -0.1961
     99  CA        12.8090   -3.5280   18.3880 C.3   164  HIS164      0.1787
    100  C         13.5500   -2.4500   19.1730 C.2   164  HIS164      0.2620
    101  O         14.5720   -2.7390   19.7990 O.2   164  HIS164     -0.2715
    102  CB        13.3750   -3.4680   16.9580 C.3   164  HIS164      0.0785
    103  CG        13.0410   -4.6540   16.1110 C.ar  164  HIS164      0.0821
    104  ND1       14.0070   -5.4070   15.4780 N.ar  164  HIS164     -0.2267
    105  CD2       11.8520   -5.2120   15.7820 C.ar  164  HIS164      0.1154
    106  CE1       13.4280   -6.3810   14.7990 C.ar  164  HIS164      0.1986
    107  NE2       12.1210   -6.2850   14.9660 N.ar  164  HIS164     -0.2212
    108  N         13.0610   -1.2120   19.1290 N.am  165  MET165     -0.1963
    109  CA        13.7800   -0.1420   19.8000 C.3   165  MET165      0.1736
    110  C         12.9940    1.1280   20.0810 C.2   165  MET165      0.2616
    111  O         11.8760    1.3220   19.5970 O.2   165  MET165     -0.2715
    112  CB        15.0140    0.2160   18.9700 C.3   165  MET165      0.0427
    113  CG        14.6880    0.8010   17.6050 C.3   165  MET165      0.0599
    114  SD        16.0100    0.5730   16.3870 S.3   165  MET165     -0.1393
    115  CE        17.2380    1.7550   16.9720 C.3   165  MET165      0.0692
    116  N         13.6180    2.0000   20.8630 N.am  166  GLU166     -0.1963
    117  CA        13.0310    3.2690   21.2430 C.3   166  GLU166      0.1733
    118  C         13.9430    4.3720   20.7530 C.2   166  GLU166      0.2616
    119  O         15.1600    4.2020   20.7120 O.2   166  GLU166     -0.2715
    120  CB        12.9040    3.3430   22.7610 C.3   166  GLU166      0.0429
    121  CG        12.3290    4.6370   23.2870 C.3   166  GLU166      0.1163
    122  CD        12.0530    4.5650   24.7720 C.2   166  GLU166      0.3649
    123  OE1       12.6840    5.3250   25.5340 O.co2 166  GLU166     -0.2457
    124  OE2       11.2060    3.7430   25.1750 O.co2 166  GLU166     -0.2457
    125  N         13.3520    5.4960   20.3680 N.am  167  LEU167     -0.1964
    126  CA        14.1290    6.6250   19.8880 C.3   167  LEU167      0.1713
    127  C         14.1810    7.6920   20.9680 C.2   167  LEU167      0.2458
    128  O         13.4010    7.6660   21.9180 O.2   167  LEU167     -0.2730
    129  CB        13.5110    7.1960   18.6120 C.3   167  LEU167      0.0310
    130  CG        13.5580    6.2330   17.4310 C.3   167  LEU167      0.0022
    131  CD1       12.7720    6.7970   16.2600 C.3   167  LEU167      0.0001
    132  CD2       15.0070    5.9900   17.0450 C.3   167  LEU167      0.0001
    133  N         15.1050    8.6500   20.8300 N.am  168  PRO168     -0.2727
    134  CA        15.2940    9.7490   21.7810 C.3   168  PRO168      0.1402
    135  C         14.0490   10.5080   22.2580 C.2   168  PRO168      0.2269
    136  O         13.9900   10.9220   23.4220 O.2   168  PRO168     -0.2865
    137  CB        16.3150   10.6500   21.0720 C.3   168  PRO168      0.0296
    138  CG        16.1860   10.2740   19.6150 C.3   168  PRO168      0.0237
    139  CD        16.0210    8.7900   19.6850 C.3   168  PRO168      0.0939
    140  N          8.6310    4.8090   19.5390 N.3   172  HIS172     -0.1241
    141  CA         9.1260    3.4810   19.2210 C.3   172  HIS172      0.1621
    142  C          9.1490    3.0610   17.7580 C.2   172  HIS172      0.2264
    143  O          8.3190    3.4980   16.9580 O.2   172  HIS172     -0.2867
    144  CB         8.3230    2.4930   20.0540 C.3   172  HIS172      0.0745
    145  CG         8.3090    2.8450   21.5080 C.ar  172  HIS172      0.0817
    146  ND1        7.2910    3.5700   22.0900 N.ar  172  HIS172     -0.2268
    147  CD2        9.2380    2.6580   22.4760 C.ar  172  HIS172      0.1154
    148  CE1        7.5940    3.8140   23.3540 C.ar  172  HIS172      0.1986
    149  NE2        8.7710    3.2720   23.6130 N.ar  172  HIS172     -0.2212
    150  N         18.5300   -1.5090   12.8260 N.3   187  ASP187     -0.1225
    151  CA        18.7760   -2.0740   14.1530 C.3   187  ASP187      0.1805
    152  C         20.2500   -2.0100   14.5210 C.2   187  ASP187      0.2598
    153  O         20.9870   -3.0030   14.4790 O.2   187  ASP187     -0.2718
    154  CB        18.2330   -3.5090   14.2700 C.3   187  ASP187      0.1424
    155  CG        18.6180   -4.4010   13.1000 C.2   187  ASP187      0.3668
    156  OD1       19.1530   -3.9010   12.0910 O.co2 187  ASP187     -0.2456
    157  OD2       18.3620   -5.6180   13.1910 O.co2 187  ASP187     -0.2456
    158  N         20.6510   -0.7980   14.8880 N.am  188  ARG188     -0.1966
    159  CA        22.0130   -0.4580   15.2840 C.3   188  ARG188      0.1729
    160  C         21.8660    0.7100   16.2600 C.2   188  ARG188      0.2616
    161  O         21.0090    1.5660   16.0560 O.2   188  ARG188     -0.2715
    162  CB        22.7980   -0.0170   14.0460 C.3   188  ARG188      0.0348
    163  CG        24.1010    0.6910   14.3390 C.3   188  ARG188      0.0492
    164  CD        24.8020    1.1290   13.0570 C.3   188  ARG188      0.2205
    165  NE        26.1080    1.7270   13.3350 N.pl3 188  ARG188     -0.0865
    166  CZ        26.9370    2.1900   12.4040 C.cat 188  ARG188      0.5346
    167  NH1       28.1040    2.7160   12.7550 N.pl3 188  ARG188      0.1354
    168  NH2       26.5980    2.1310   11.1220 N.pl3 188  ARG188      0.1354
    169  N         22.6780    0.7540   17.3160 N.am  189  GLN189     -0.1963
    170  CA        22.5640    1.8540   18.2730 C.3   189  GLN189      0.1733
    171  C         23.3750    3.0830   17.8820 C.2   189  GLN189      0.2617
    172  O         24.0570    3.6920   18.7050 O.2   189  GLN189     -0.2715
    173  CB        22.9280    1.4000   19.6990 C.3   189  GLN189      0.0408
    174  CG        21.8270    0.5610   20.3530 C.3   189  GLN189      0.0908
    175  CD        21.9300    0.4850   21.8740 C.2   189  GLN189      0.2608
    176  OE1       20.9300    0.2490   22.5620 O.2   189  GLN189     -0.2717
    177  NE2       23.1390    0.6720   22.4050 N.am  189  GLN189     -0.0878
    178  N         23.2940    3.4350   16.6060 N.am  190  THR190     -0.1937
    179  CA        23.9660    4.6130   16.0880 C.3   190  THR190      0.2028
    180  C         22.8860    5.6910   16.1420 C.2   190  THR190      0.2642
    181  O         21.7030    5.3720   16.0940 O.2   190  THR190     -0.2714
    182  CB        24.4170    4.3940   14.6330 C.3   190  THR190      0.1808
    183  OG1       25.1250    5.5510   14.1750 O.3   190  THR190     -0.2208
    184  CG2       23.2100    4.1380   13.7260 C.3   190  THR190      0.0379
    185  N         23.2740    6.9560   16.2460 N.am  191  ALA191     -0.1963
    186  CA        22.3000    8.0440   16.3240 C.3   191  ALA191      0.1728
    187  C         21.2410    8.0390   15.2180 C.2   191  ALA191      0.2616
    188  O         21.5670    8.0560   14.0330 O.2   191  ALA191     -0.2715
    189  CB        23.0230    9.3870   16.3340 C.3   191  ALA191      0.0334
    190  N         19.9750    8.0210   15.6270 N.am  192  GLN192     -0.1977
    191  CA        18.8320    8.0440   14.7130 C.3   192  GLN192      0.1601
    192  C         17.7320    8.8390   15.4000 C.2   192  GLN192      0.2287
    193  O         17.6320    8.8450   16.6270 O.2   192  GLN192     -0.2864
    194  CB        18.3190    6.6310   14.4310 C.3   192  GLN192      0.0394
    195  CG        19.3100    5.7220   13.7430 C.3   192  GLN192      0.0908
    196  CD        18.7770    4.3110   13.5680 C.2   192  GLN192      0.2608
    197  OE1       17.8600    4.0700   12.7800 O.2   192  GLN192     -0.2717
    198  NE2       19.3440    3.3710   14.3130 N.am  192  GLN192     -0.0878
@<TRIPOS>BOND
     1   168   166    1
     2    35    36    2
     3    35    34    1
     4    33    34    1
     5    37    34    1
     6    37    38    1
     7   156   155   ar
     8    39    38   ar
     9    39    41   ar
    10   166   167    1
    11   166   165    2
    12    38    40   ar
    13   197   196    2
    14   150   151    1
    15   164   165    1
    16   164   163    1
    17   155   157   ar
    18   155   154    1
    19    41    43   ar
    20   196   195    1
    21   196   198   am
    22   184   182    1
    23   195   194    1
    24    40    42   ar
    25   188   187    2
    26   162   163    1
    27   162   159    1
    28   151   154    1
    29   151   152    1
    30   183   182    1
    31   194   191    1
    32   153   152    2
    33    43    42   ar
    34    43    44    1
    35   152   158   am
    36   182   179    1
    37   191   192    1
    38   191   190    1
    39   106   107   ar
    40   106   104   ar
    41   158   159    1
    42   107   105   ar
    43   187   190   am
    44   187   186    1
    45   159   160    1
    46   192   193    2
    47   104   103   ar
    48   105   103   ar
    49   161   160    2
    50   179   180    1
    51   179   178    1
    52   181   180    2
    53   103   102    1
    54   180   185   am
    55   185   186    1
    56   131   130    1
    57   160   169   am
    58   186   189    1
    59   114   115    1
    60   114   113    1
    61   178   171   am
    62     9    10    1
    63   143   142    2
    64   102    99    1
    65   132   130    1
    66   169   170    1
    67   130   129    1
    68   113   112    1
    69   142   141    1
    70    10    13    1
    71    10    11    1
    72   171   170    1
    73   171   172    2
    74    28    27    2
    75    24    23    1
    76    13    14    1
    77    88    89    1
    78   170   173    1
    79    99    98    1
    80    99   100    1
    81    98    90   am
    82   129   126    1
    83    89    90    1
    84    89    92    1
    85    27    26    1
    86    15    14   ar
    87    15    17   ar
    88    90    91    2
    89   112   109    1
    90    14    16   ar
    91   108   100   am
    92   108   109    1
    93    11    12    2
    94   100   101    2
    95   141   140    1
    96   141   144    1
    97    26    25    1
    98    26    29    1
    99   111   110    2
   100   138   139    1
   101   138   137    1
   102   139   133    1
   103   173   174    1
   104    23    20    1
   105    17    18   ar
   106   109   110    1
   107   126   125    1
   108   126   127    1
   109    19    20    1
   110   144   145    1
   111    94    93   ar
   112    94    96   ar
   113    92    93    1
   114   110   116   am
   115    20    21    1
   116    16    18   ar
   117   174   175    1
   118   125   118   am
   119    93    95   ar
   120   119   118    2
   121   118   117    1
   122    96    97   ar
   123    29    30    1
   124   133   127   am
   125   133   134    1
   126   116   117    1
   127   127   128    2
   128   137   134    1
   129   117   120    1
   130   145   146   ar
   131   145   147   ar
   132    21    22    2
   133    30    31    1
   134   134   135    1
   135     8     6    1
   136    95    97   ar
   137    55    53   ar
   138    55    54   ar
   139   175   177   am
   140   175   176    2
   141     7     6    1
   142    53    51   ar
   143    84    83    1
   144    84    85    2
   145   146   148   ar
   146    86    83    1
   147    86    87    1
   148    83    82    1
   149   135   136    2
   150   147   149   ar
   151     6     5    1
   152   120   121    1
   153    54    52   ar
   154    51    50   ar
   155    31    32    1
   156   121   122    1
   157   148   149   ar
   158    79    78    2
   159    82    78   am
   160     5     2    1
   161    52    50   ar
   162    50    49    1
   163    78    77    1
   164     3     4    2
   165     3     2    1
   166   122   124   ar
   167   122   123   ar
   168    49    46    1
   169     2     1    1
   170    81    80    1
   171    77    80    1
   172    77    76    1
   173    45    46    1
   174    46    47    1
   175    76    74   am
   176    75    74    2
   177    74    73    1
   178    47    48    2
   179    47    56   am
   180    59    58    2
   181    72    73    1
   182    72    66   am
   183    56    57    1
   184    70    69    2
   185    58    57    1
   186    58    64   am
   187    65    66    1
   188    65    64    1
   189    65    68    1
   190    69    71   am
   191    69    68    1
   192    66    67    2
   193    57    60    1
   194    60    61    1
   195    61    63    1
   196    61    62    1
