@<TRIPOS>MOLECULE
tmp/2gx5C00.pdb
 76 72 0 0 0
SMALL
GASTEIGER

@<TRIPOS>ATOM
      1  N        -39.9760    5.3290   23.7500 N.3    91  ASP91      -0.1225
      2  CA       -40.9390    4.8910   24.7540 C.3    91  ASP91       0.1805
      3  C        -41.8980    3.8800   24.1390 C.2    91  ASP91       0.2598
      4  O        -41.7700    3.5160   22.9700 O.2    91  ASP91      -0.2718
      5  CB       -41.6470    6.0930   25.4220 C.3    91  ASP91       0.1424
      6  CG       -42.6090    6.8400   24.5020 C.2    91  ASP91       0.3668
      7  OD1      -43.1010    6.2870   23.5040 O.co2  91  ASP91      -0.2456
      8  OD2      -42.8900    8.0120   24.8150 O.co2  91  ASP91      -0.2456
      9  N        -42.8340    3.4080   24.9510 N.am   92  ILE92      -0.1966
     10  CA       -43.7400    2.3470   24.5370 C.3    92  ILE92       0.1727
     11  C        -44.5390    2.7100   23.2750 C.2    92  ILE92       0.2616
     12  O        -44.9120    1.8140   22.5090 O.2    92  ILE92      -0.2715
     13  CB       -44.6900    1.9780   25.6930 C.3    92  ILE92       0.0290
     14  CG1      -45.4850    0.7090   25.3580 C.3    92  ILE92       0.0022
     15  CG2      -45.6150    3.1470   26.0140 C.3    92  ILE92       0.0023
     16  CD1      -46.1560    0.0950   26.5700 C.3    92  ILE92       0.0001
     17  N        -44.7890    4.0080   23.0710 N.am   93  ASN93      -0.1972
     18  CA       -45.5850    4.4990   21.9330 C.3    93  ASN93       0.1688
     19  C        -44.7690    4.8990   20.6970 C.2    93  ASN93       0.2292
     20  O        -45.3260    5.4390   19.7370 O.2    93  ASN93      -0.2864
     21  CB       -46.4400    5.6840   22.3820 C.3    93  ASN93       0.1181
     22  CG       -47.4740    5.3010   23.4220 C.2    93  ASN93       0.2629
     23  OD1      -48.0290    4.2070   23.3780 O.2    93  ASN93      -0.2716
     24  ND2      -47.7110    6.1910   24.3830 N.am   93  ASN93      -0.0877
     25  N        -40.8540   -0.5980   28.0870 N.3   108  GLN108     -0.1231
     26  CA       -42.1270   -0.7720   28.8070 C.3   108  GLN108      0.1698
     27  C        -42.5970    0.4700   29.5610 C.2   108  GLN108      0.2592
     28  O        -43.7980    0.7650   29.6050 O.2   108  GLN108     -0.2718
     29  CB       -42.0220   -1.9580   29.7650 C.3   108  GLN108      0.0381
     30  CG       -43.3230   -2.2640   30.5330 C.3   108  GLN108      0.0905
     31  CD       -43.2780   -3.5920   31.2500 C.2   108  GLN108      0.2608
     32  OE1      -42.2180   -4.0390   31.6800 O.2   108  GLN108     -0.2717
     33  NE2      -44.4400   -4.2440   31.3760 N.am  108  GLN108     -0.0878
     34  N        -41.6600    1.1880   30.1740 N.am  109  ALA109     -0.1966
     35  CA       -41.9870    2.4160   30.8920 C.3   109  ALA109      0.1728
     36  C        -40.8640    3.4300   30.7680 C.2   109  ALA109      0.2617
     37  O        -39.7330    3.0740   30.3970 O.2   109  ALA109     -0.2715
     38  CB       -42.2780    2.1050   32.3790 C.3   109  ALA109      0.0334
     39  N        -41.1950    4.6870   31.0560 N.am  110  GLY110     -0.1940
     40  CA       -40.2320    5.7870   31.0380 C.3   110  GLY110      0.2014
     41  C        -39.7430    6.0970   29.6360 C.2   110  GLY110      0.2638
     42  O        -40.3270    5.6380   28.6510 O.2   110  GLY110     -0.2714
     43  N        -38.6740    6.8910   29.5730 N.am  111  LEU111     -0.1977
     44  CA       -38.0270    7.2780   28.3240 C.3   111  LEU111      0.1596
     45  C        -36.6210    6.6900   28.3050 C.2   111  LEU111      0.2287
     46  O        -35.9180    6.7350   29.3120 O.2   111  LEU111     -0.2864
     47  CB       -37.9410    8.7940   28.2350 C.3   111  LEU111      0.0297
     48  CG       -39.2900    9.5030   28.0940 C.3   111  LEU111      0.0022
     49  CD1      -39.1720   10.9320   28.5370 C.3   111  LEU111      0.0001
     50  CD2      -39.7900    9.3980   26.6640 C.3   111  LEU111      0.0001
     51  N        -37.8320    8.1680   34.2880 N.3   132  LEU132     -0.1231
     52  CA       -39.2650    7.9470   34.4750 C.3   132  LEU132      0.1693
     53  C        -40.1230    8.8740   33.6220 C.2   132  LEU132      0.2591
     54  O        -41.0840    8.4180   32.9960 O.2   132  LEU132     -0.2718
     55  CB       -39.6280    8.1210   35.9560 C.3   132  LEU132      0.0284
     56  CG       -41.0340    7.7150   36.4030 C.3   132  LEU132      0.0019
     57  CD1      -41.3200    6.2590   36.1020 C.3   132  LEU132      0.0001
     58  CD2      -41.1740    7.9900   37.9020 C.3   132  LEU132      0.0001
     59  N        -39.7870   10.1610   33.5810 N.am  133  GLN133     -0.1979
     60  CA       -40.6870   11.1500   32.9760 C.3   133  GLN133      0.1601
     61  C        -40.0570   12.3110   32.1950 C.2   133  GLN133      0.2287
     62  O        -40.7470   12.9570   31.4000 O.2   133  GLN133     -0.2864
     63  CB       -41.6370   11.7000   34.0560 C.3   133  GLN133      0.0394
     64  CG       -40.9870   11.9800   35.4130 C.3   133  GLN133      0.0908
     65  CD       -42.0020   12.1830   36.5340 C.2   133  GLN133      0.2608
     66  OE1      -43.2060   11.9920   36.3470 O.2   133  GLN133     -0.2717
     67  NE2      -41.5120   12.5570   37.7100 N.am  133  GLN133     -0.0878
     68  N        -37.7200   14.1000   29.4660 N.3   135  GLN135     -0.1245
     69  CA       -37.1070   13.8860   28.1530 C.3   135  GLN135      0.1566
     70  C        -35.6010   14.1460   28.1940 C.2   135  GLN135      0.2260
     71  O        -35.1320   14.9860   28.9540 O.2   135  GLN135     -0.2867
     72  CB       -37.7430   14.8200   27.1120 C.3   135  GLN135      0.0367
     73  CG       -39.2160   14.5210   26.7960 C.3   135  GLN135      0.0905
     74  CD       -39.4040   13.6300   25.5780 C.2   135  GLN135      0.2608
     75  OE1      -38.8480   13.8900   24.5050 O.2   135  GLN135     -0.2717
     76  NE2      -40.2100   12.5850   25.7310 N.am  135  GLN135     -0.0878
@<TRIPOS>BOND
     1    20    19    2
     2    19    18    1
     3    18    21    1
     4    18    17    1
     5    21    22    1
     6    12    11    2
     7     4     3    2
     8    17    11   am
     9    11    10    1
    10    23    22    2
    11    22    24   am
    12     7     6   ar
    13     1     2    1
    14     3     2    1
    15     3     9   am
    16     6     8   ar
    17     6     5    1
    18    75    74    2
    19    10     9    1
    20    10    13    1
    21     2     5    1
    22    14    13    1
    23    14    16    1
    24    74    76   am
    25    74    73    1
    26    13    15    1
    27    50    48    1
    28    73    72    1
    29    72    69    1
    30    25    26    1
    31    48    47    1
    32    48    49    1
    33    69    70    1
    34    69    68    1
    35    70    71    2
    36    47    44    1
    37    45    44    1
    38    45    46    2
    39    44    43    1
    40    42    41    2
    41    26    27    1
    42    26    29    1
    43    27    28    2
    44    27    34   am
    45    43    41   am
    46    41    40    1
    47    29    30    1
    48    34    35    1
    49    37    36    2
    50    30    31    1
    51    36    35    1
    52    36    39   am
    53    35    38    1
    54    40    39    1
    55    31    33   am
    56    31    32    2
    57    62    61    2
    58    61    60    1
    59    60    59    1
    60    60    63    1
    61    54    53    2
    62    59    53   am
    63    53    52    1
    64    63    64    1
    65    51    52    1
    66    52    55    1
    67    64    65    1
    68    55    56    1
    69    57    56    1
    70    66    65    2
    71    56    58    1
    72    65    67   am
