@<TRIPOS>MOLECULE
tmp/2gx8B00.pdb
 81 77 0 0 0
SMALL
GASTEIGER

@<TRIPOS>ATOM
      1  N          4.4650  -25.2420   13.1880 N.3   138  LYS138     -0.1245
      2  CA         4.4790  -26.4150   12.3560 C.3   138  LYS138      0.1561
      3  C          3.9510  -27.5200   13.2580 C.2   138  LYS138      0.2260
      4  O          4.4630  -27.7260   14.3650 O.2   138  LYS138     -0.2867
      5  CB         5.8950  -26.8140   11.9960 C.3   138  LYS138      0.0271
      6  CG         5.9470  -27.7820   10.8620 C.3   138  LYS138      0.0035
      7  CD         5.8700  -26.9970    9.5820 C.3   138  LYS138      0.0206
      8  CE         5.4600  -27.8720    8.4760 C.3   138  LYS138      0.1093
      9  NZ         5.8880  -27.3380    7.1940 N.3   138  LYS138     -0.1314
     10  N         -2.3790  -25.5220    6.4350 N.3   161  GLY161     -0.1225
     11  CA        -1.7070  -25.6700    5.1490 C.3   161  GLY161      0.1811
     12  C         -2.2170  -24.7790    4.0360 C.2   161  GLY161      0.2280
     13  O         -2.3020  -25.2030    2.8840 O.2   161  GLY161     -0.2866
     14  N         -1.1040  -21.9230    2.0650 N.3   163  ILE163     -0.1245
     15  CA         0.0830  -21.1730    1.6430 C.3   163  ILE163      0.1561
     16  C         -0.1530  -20.5130    0.2790 C.2   163  ILE163      0.2260
     17  O         -0.1530  -21.1970   -0.7590 O.2   163  ILE163     -0.2867
     18  CB         1.3310  -22.1190    1.5870 C.3   163  ILE163      0.0252
     19  CG1        1.5380  -22.7940    2.9530 C.3   163  ILE163      0.0019
     20  CG2        2.5670  -21.3540    1.1300 C.3   163  ILE163      0.0019
     21  CD1        2.6560  -23.8310    2.9970 C.3   163  ILE163      0.0001
     22  N         -2.5860  -21.9360   -2.6140 N.3   166  TYR166     -0.1241
     23  CA        -2.7260  -23.3680   -2.4130 C.3   166  TYR166      0.1605
     24  C         -3.3260  -23.6150   -1.0300 C.2   166  TYR166      0.2264
     25  O         -3.1350  -22.8240   -0.1050 O.2   166  TYR166     -0.2867
     26  CB        -1.3760  -24.0640   -2.5440 C.3   166  TYR166      0.0534
     27  CG        -0.7210  -23.9970   -3.9150 C.ar  166  TYR166     -0.0201
     28  CD1        0.1050  -22.9270   -4.2730 C.ar  166  TYR166     -0.0009
     29  CD2       -0.8820  -25.0290   -4.8270 C.ar  166  TYR166     -0.0009
     30  CE1        0.7250  -22.8750   -5.5210 C.ar  166  TYR166      0.0417
     31  CE2       -0.2660  -24.9910   -6.0800 C.ar  166  TYR166      0.0417
     32  CZ         0.5370  -23.9110   -6.4180 C.ar  166  TYR166      0.1957
     33  OH         1.1420  -23.8790   -7.6570 O.3   166  TYR166     -0.2866
     34  N         -2.0930  -28.0030    2.3900 N.3   169  CYS169     -0.1221
     35  CA        -0.6980  -28.3640    2.2240 C.3   169  CYS169      0.1808
     36  C         -0.2200  -29.1190    3.4570 C.2   169  CYS169      0.2602
     37  O         -0.3840  -28.6370    4.5820 O.2   169  CYS169     -0.2717
     38  CB         0.1830  -27.1220    1.9780 C.3   169  CYS169      0.0970
     39  SG        -0.2250  -26.0690    0.5110 S.3   169  CYS169     -0.0800
     40  N          0.3260  -30.3190    3.2290 N.am  170  THR170     -0.1939
     41  CA         0.8940  -31.1910    4.2550 C.3   170  THR170      0.2028
     42  C          2.0480  -31.8890    3.5840 C.2   170  THR170      0.2642
     43  O          2.0700  -32.0130    2.3480 O.2   170  THR170     -0.2714
     44  CB        -0.0550  -32.3370    4.7290 C.3   170  THR170      0.1808
     45  OG1       -0.2010  -33.3400    3.7020 O.3   170  THR170     -0.2208
     46  CG2       -1.4170  -31.8100    5.1420 C.3   170  THR170      0.0379
     47  N          3.0230  -32.3160    4.3780 N.am  171  PHE171     -0.1973
     48  CA         4.0980  -33.1220    3.8360 C.3   171  PHE171      0.1639
     49  C          4.2010  -34.3710    4.6790 C.2   171  PHE171      0.2290
     50  O          4.1600  -34.2970    5.9000 O.2   171  PHE171     -0.2864
     51  CB         5.4110  -32.3910    3.7830 C.3   171  PHE171      0.0560
     52  CG         6.5210  -33.2360    3.2780 C.ar  171  PHE171     -0.0200
     53  CD1        6.8100  -33.2780    1.9230 C.ar  171  PHE171     -0.0042
     54  CD2        7.2830  -34.0110    4.1580 C.ar  171  PHE171     -0.0042
     55  CE1        7.8440  -34.0650    1.4490 C.ar  171  PHE171     -0.0003
     56  CE2        8.3050  -34.7870    3.7010 C.ar  171  PHE171     -0.0003
     57  CZ         8.5930  -34.8190    2.3440 C.ar  171  PHE171     -0.0000
     58  N          3.3770  -33.3260    8.4020 N.3   193  GLU193     -0.1231
     59  CA         3.6140  -31.9730    8.9020 C.3   193  GLU193      0.1699
     60  C          2.7840  -30.9520    8.1760 C.2   193  GLU193      0.2593
     61  O          2.5560  -31.0780    6.9730 O.2   193  GLU193     -0.2718
     62  CB         5.0960  -31.6030    8.8430 C.3   193  GLU193      0.0402
     63  CG         5.7730  -31.6120    7.4640 C.3   193  GLU193      0.1161
     64  CD         7.2690  -31.2180    7.5330 C.2   193  GLU193      0.3649
     65  OE1        7.5800  -30.0330    7.7490 O.co2 193  GLU193     -0.2457
     66  OE2        8.1430  -32.0880    7.3190 O.co2 193  GLU193     -0.2457
     67  N          2.3090  -29.9540    8.9140 N.am  194  THR194     -0.1939
     68  CA         1.4950  -28.8850    8.3290 C.3   194  THR194      0.2028
     69  C          1.6770  -27.5510    9.0950 C.2   194  THR194      0.2642
     70  O          1.9440  -27.5350   10.3070 O.2   194  THR194     -0.2714
     71  CB         0.0010  -29.2930    8.2870 C.3   194  THR194      0.1808
     72  OG1       -0.7200  -28.4170    7.4160 O.3   194  THR194     -0.2208
     73  CG2       -0.6290  -29.3010    9.6860 C.3   194  THR194      0.0379
     74  N          1.5440  -26.4350    8.3900 N.am  195  ILE195     -0.1977
     75  CA         1.6910  -25.1300    9.0350 C.3   195  ILE195      0.1596
     76  C          0.3640  -24.4950    9.3970 C.2   195  ILE195      0.2287
     77  O         -0.5460  -24.3820    8.5650 O.2   195  ILE195     -0.2864
     78  CB         2.5260  -24.1460    8.1920 C.3   195  ILE195      0.0276
     79  CG1        2.8130  -22.8760    8.9890 C.3   195  ILE195      0.0022
     80  CG2        1.8300  -23.7950    6.8820 C.3   195  ILE195      0.0022
     81  CD1        3.7560  -21.9630    8.2720 C.3   195  ILE195      0.0001
@<TRIPOS>BOND
     1    33    32    1
     2    32    31   ar
     3    32    30   ar
     4    31    29   ar
     5    30    28   ar
     6    29    27   ar
     7    28    27   ar
     8    27    26    1
     9    22    23    1
    10    26    23    1
    11    23    24    1
    12    24    25    2
    13    17    16    2
    14    16    15    1
    15    39    38    1
    16    20    18    1
    17    55    53   ar
    18    55    57   ar
    19    18    15    1
    20    18    19    1
    21    15    14    1
    22    53    52   ar
    23    38    35    1
    24    35    34    1
    25    35    36    1
    26    57    56   ar
    27    43    42    2
    28    13    12    2
    29    19    21    1
    30    40    36   am
    31    40    41    1
    32    52    51    1
    33    52    54   ar
    34    36    37    2
    35    42    41    1
    36    42    47   am
    37    56    54   ar
    38    45    44    1
    39    51    48    1
    40    48    47    1
    41    48    49    1
    42    12    11    1
    43    41    44    1
    44    49    50    2
    45    44    46    1
    46    11    10    1
    47    80    78    1
    48    61    60    2
    49     9     8    1
    50    66    64   ar
    51    72    71    1
    52    63    64    1
    53    63    62    1
    54    64    65   ar
    55    60    59    1
    56    60    67   am
    57    78    79    1
    58    78    75    1
    59    81    79    1
    60    71    68    1
    61    71    73    1
    62    68    67    1
    63    68    69    1
    64    74    75    1
    65    74    69   am
    66    58    59    1
    67     8     7    1
    68    77    76    2
    69    62    59    1
    70    75    76    1
    71    69    70    2
    72     7     6    1
    73     6     5    1
    74     5     2    1
    75     2     1    1
    76     2     3    1
    77     3     4    2
