@<TRIPOS>MOLECULE
tmp/2gxaJ01.pdb
 111 108 0 0 0
SMALL
GASTEIGER

@<TRIPOS>ATOM
      1  N        -13.8320  -29.9590  -28.0330 N.3   132  PRO132     -0.2102
      2  CA       -13.4150  -30.2680  -29.4000 C.3   132  PRO132      0.1504
      3  C        -13.4750  -31.7680  -29.6900 C.2   132  PRO132      0.2576
      4  O        -13.3530  -32.5850  -28.7790 O.2   132  PRO132     -0.2718
      5  CB       -11.9940  -29.7020  -29.4600 C.3   132  PRO132      0.0282
      6  CG       -11.5370  -29.7530  -28.0280 C.3   132  PRO132      0.0208
      7  CD       -12.7540  -29.2880  -27.2880 C.3   132  PRO132      0.0893
      8  N        -13.6930  -32.1200  -30.9560 N.am  133  ASN133     -0.1961
      9  CA       -13.7610  -33.5180  -31.3810 C.3   133  ASN133      0.1819
     10  C        -14.9710  -34.3060  -30.9010 C.2   133  ASN133      0.2622
     11  O        -14.8380  -35.4480  -30.4650 O.2   133  ASN133     -0.2715
     12  CB       -12.5000  -34.2600  -30.9510 C.3   133  ASN133      0.1195
     13  CG       -11.3080  -33.8850  -31.7760 C.2   133  ASN133      0.2630
     14  OD1      -11.3190  -34.0330  -32.9930 O.2   133  ASN133     -0.2716
     15  ND2      -10.2660  -33.4010  -31.1260 N.am  133  ASN133     -0.0877
     16  N        -16.1510  -33.7120  -30.9920 N.am  134  THR134     -0.1937
     17  CA       -17.3510  -34.4050  -30.5640 C.3   134  THR134      0.2028
     18  C        -18.3570  -34.5520  -31.7070 C.2   134  THR134      0.2643
     19  O        -19.4630  -35.0590  -31.5130 O.2   134  THR134     -0.2714
     20  CB       -17.9980  -33.6840  -29.3700 C.3   134  THR134      0.1808
     21  OG1      -18.3320  -32.3420  -29.7370 O.3   134  THR134     -0.2208
     22  CG2      -17.0320  -33.6420  -28.2040 C.3   134  THR134      0.0379
     23  N        -17.9570  -34.1130  -32.9000 N.am  135  GLY135     -0.1939
     24  CA       -18.8090  -34.2190  -34.0740 C.3   135  GLY135      0.2014
     25  C        -19.7710  -33.0700  -34.3330 C.2   135  GLY135      0.2639
     26  O        -20.7070  -33.2120  -35.1290 O.2   135  GLY135     -0.2714
     27  N        -19.5590  -31.9360  -33.6700 N.am  136  LYS136     -0.1963
     28  CA       -20.4280  -30.7760  -33.8520 C.3   136  LYS136      0.1728
     29  C        -20.3610  -30.2970  -35.2940 C.2   136  LYS136      0.2617
     30  O        -21.3360  -30.4050  -36.0350 O.2   136  LYS136     -0.2715
     31  CB       -20.0210  -29.6500  -32.8990 C.3   136  LYS136      0.0311
     32  CG       -20.3140  -29.9440  -31.4200 C.3   136  LYS136      0.0038
     33  CD       -19.6320  -28.9530  -30.4820 C.3   136  LYS136      0.0206
     34  CE       -18.1990  -29.3670  -30.2040 C.3   136  LYS136      0.1093
     35  NZ       -17.2490  -28.2180  -30.1530 N.3   136  LYS136     -0.1314
     36  N        -19.2050  -29.7840  -35.6970 N.am  137  SER137     -0.1936
     37  CA       -19.0310  -29.3050  -37.0600 C.3   137  SER137      0.2055
     38  C        -19.4070  -30.4110  -38.0390 C.2   137  SER137      0.2642
     39  O        -19.9690  -30.1540  -39.1000 O.2   137  SER137     -0.2714
     40  CB       -17.5820  -28.8740  -37.2850 C.3   137  SER137      0.2130
     41  OG       -17.1670  -27.9590  -36.2830 O.3   137  SER137     -0.2179
     42  N        -19.1000  -31.6450  -37.6660 N.am  138  MET138     -0.1976
     43  CA       -19.4100  -32.7950  -38.4960 C.3   138  MET138      0.1605
     44  C        -20.9090  -32.8560  -38.7880 C.2   138  MET138      0.2287
     45  O        -21.3150  -32.8590  -39.9510 O.2   138  MET138     -0.2864
     46  CB       -18.9450  -34.0680  -37.7860 C.3   138  MET138      0.0413
     47  CG       -19.1750  -35.3620  -38.5440 C.3   138  MET138      0.0598
     48  SD       -20.8790  -35.9330  -38.5320 S.3   138  MET138     -0.1393
     49  CE       -21.2340  -35.8180  -40.2630 C.3   138  MET138      0.0692
     50  N        -17.9490  -23.1030  -35.3280 N.3   176  ASP176     -0.1239
     51  CA       -16.9880  -22.7370  -34.2930 C.3   176  ASP176      0.1674
     52  C        -16.9940  -21.2590  -33.9380 C.2   176  ASP176      0.2266
     53  O        -16.1380  -20.4910  -34.3810 O.2   176  ASP176     -0.2867
     54  CB       -15.5860  -23.1610  -34.7110 C.3   176  ASP176      0.1410
     55  CG       -14.9440  -24.0810  -33.7050 C.2   176  ASP176      0.3668
     56  OD1      -14.7410  -23.6420  -32.5540 O.co2 176  ASP176     -0.2456
     57  OD2      -14.6560  -25.2430  -34.0630 O.co2 176  ASP176     -0.2456
     58  N        -15.9820  -38.1240  -30.0830 N.3   245  CYS245     -0.1221
     59  CA       -16.3740  -38.6180  -31.3970 C.3   245  CYS245      0.1808
     60  C        -15.2560  -39.3460  -32.1480 C.2   245  CYS245      0.2601
     61  O        -15.2800  -40.5740  -32.2600 O.2   245  CYS245     -0.2717
     62  CB       -16.9070  -37.4610  -32.2480 C.3   245  CYS245      0.0970
     63  SG       -17.7830  -37.9740  -33.7500 S.3   245  CYS245     -0.0800
     64  N        -14.2850  -38.5930  -32.6620 N.am  246  THR246     -0.1953
     65  CA       -13.1710  -39.1760  -33.4110 C.3   246  THR246      0.1897
     66  C        -12.5060  -40.3110  -32.6360 C.2   246  THR246      0.2313
     67  O        -12.2130  -40.1710  -31.4510 O.2   246  THR246     -0.2863
     68  CB       -12.1430  -38.0950  -33.7490 C.3   246  THR246      0.1794
     69  OG1      -11.6640  -37.5390  -32.5340 O.3   246  THR246     -0.2208
     70  CG2      -12.7260  -37.0140  -34.6390 C.3   246  THR246      0.0378
     71  N         -8.1550  -44.4960  -38.1710 N.3   250  GLY250     -0.1210
     72  CA        -8.2720  -43.3930  -39.1120 C.3   250  GLY250      0.1956
     73  C         -9.6820  -42.9500  -39.4510 C.2   250  GLY250      0.2612
     74  O        -10.0580  -41.8060  -39.1880 O.2   250  GLY250     -0.2717
     75  N        -10.4640  -43.8500  -40.0400 N.am  251  GLU251     -0.1965
     76  CA       -11.8390  -43.5350  -40.4100 C.3   251  GLU251      0.1733
     77  C        -12.6840  -43.3520  -39.1490 C.2   251  GLU251      0.2616
     78  O        -12.7890  -44.2620  -38.3260 O.2   251  GLU251     -0.2715
     79  CB       -12.4170  -44.6530  -41.2880 C.3   251  GLU251      0.0429
     80  CG       -12.4220  -46.0110  -40.7440 C.3   251  GLU251      0.1163
     81  CD       -11.1550  -46.8190  -40.8140 C.2   251  GLU251      0.3649
     82  OE1      -10.0470  -46.3180  -41.0070 O.co2 251  GLU251     -0.2457
     83  OE2      -11.3340  -48.0900  -40.6890 O.co2 251  GLU251     -0.2457
     84  N        -13.2710  -42.1650  -39.0000 N.am  252  GLN252     -0.1977
     85  CA       -14.1080  -41.8560  -37.8420 C.3   252  GLN252      0.1601
     86  C        -15.4080  -42.6530  -37.8900 C.2   252  GLN252      0.2287
     87  O        -16.0130  -42.8170  -38.9510 O.2   252  GLN252     -0.2864
     88  CB       -14.4110  -40.3580  -37.7940 C.3   252  GLN252      0.0394
     89  CG       -13.1630  -39.5330  -37.7100 C.3   252  GLN252      0.0908
     90  CD       -13.3260  -38.1940  -38.3390 C.2   252  GLN252      0.2608
     91  OE1      -14.4300  -37.8060  -38.7040 O.2   252  GLN252     -0.2717
     92  NE2      -12.2230  -37.4680  -38.4890 N.am  252  GLN252     -0.0878
     93  N        -18.4250  -41.9530  -37.1320 N.3   254  PHE254     -0.1227
     94  CA       -19.5720  -41.2310  -37.6730 C.3   254  PHE254      0.1736
     95  C        -19.1830  -40.3310  -38.8260 C.2   254  PHE254      0.2595
     96  O        -18.0910  -39.7650  -38.8530 O.2   254  PHE254     -0.2718
     97  CB       -20.2420  -40.3640  -36.6110 C.3   254  PHE254      0.0547
     98  CG       -20.6780  -41.1160  -35.4000 C.ar  254  PHE254     -0.0202
     99  CD1      -19.7810  -41.3890  -34.3760 C.ar  254  PHE254     -0.0042
    100  CD2      -21.9850  -41.5580  -35.2840 C.ar  254  PHE254     -0.0042
    101  CE1      -20.1770  -42.0910  -33.2530 C.ar  254  PHE254     -0.0003
    102  CE2      -22.3930  -42.2620  -34.1660 C.ar  254  PHE254     -0.0003
    103  CZ       -21.4860  -42.5290  -33.1460 C.ar  254  PHE254     -0.0000
    104  N        -20.1060  -40.1950  -39.7660 N.am  255  ASN255     -0.1974
    105  CA       -19.9180  -39.3630  -40.9410 C.3   255  ASN255      0.1688
    106  C        -21.2030  -39.4720  -41.7430 C.2   255  ASN255      0.2292
    107  O        -21.3780  -40.3960  -42.5410 O.2   255  ASN255     -0.2864
    108  CB       -18.7280  -39.8530  -41.7770 C.3   255  ASN255      0.1181
    109  CG       -18.4070  -38.9260  -42.9450 C.2   255  ASN255      0.2629
    110  OD1      -18.2710  -37.7160  -42.7700 O.2   255  ASN255     -0.2716
    111  ND2      -18.2740  -39.4950  -44.1390 N.am  255  ASN255     -0.0877
@<TRIPOS>BOND
     1   111   109   am
     2   109   110    2
     3   109   108    1
     4   107   106    2
     5   108   105    1
     6   106   105    1
     7    79    80    1
     8    79    76    1
     9    82    81   ar
    10   105   104    1
    11    81    80    1
    12    81    83   ar
    13    76    75    1
    14    76    77    1
    15    49    48    1
    16    75    73   am
    17    45    44    2
    18   104    95   am
    19    73    74    2
    20    73    72    1
    21    77    84   am
    22    77    78    2
    23    72    71    1
    24    39    38    2
    25    84    85    1
    26    87    86    2
    27    96    95    2
    28    95    94    1
    29    44    43    1
    30    91    90    2
    31    47    48    1
    32    47    46    1
    33    43    46    1
    34    43    42    1
    35    92    90   am
    36    90    89    1
    37    38    42   am
    38    38    37    1
    39    86    85    1
    40    85    88    1
    41    88    89    1
    42    94    93    1
    43    94    97    1
    44    40    37    1
    45    40    41    1
    46    37    36    1
    47    97    98    1
    48    30    29    2
    49    36    29   am
    50    98   100   ar
    51    98    99   ar
    52    50    51    1
    53    29    28    1
    54   100   102   ar
    55    26    25    2
    56    54    51    1
    57    54    55    1
    58    70    68    1
    59    53    52    2
    60    99   101   ar
    61    25    24    1
    62    25    27   am
    63    51    52    1
    64   102   103   ar
    65    24    23    1
    66    57    55   ar
    67    28    27    1
    68    28    31    1
    69    63    62    1
    70    68    65    1
    71    68    69    1
    72    55    56   ar
    73    65    64    1
    74    65    66    1
    75   101   103   ar
    76    14    13    2
    77    23    18   am
    78    31    32    1
    79    64    60   am
    80    66    67    2
    81    61    60    2
    82    62    59    1
    83    60    59    1
    84    13    15   am
    85    13    12    1
    86    18    19    2
    87    18    17    1
    88    32    33    1
    89    59    58    1
    90     9     8    1
    91     9    12    1
    92     9    10    1
    93    16    10   am
    94    16    17    1
    95     8     3   am
    96    10    11    2
    97    17    20    1
    98    33    34    1
    99    34    35    1
   100    21    20    1
   101     3     2    1
   102     3     4    2
   103     5     2    1
   104     5     6    1
   105     2     1    1
   106    20    22    1
   107     1     7    1
   108     6     7    1
