@<TRIPOS>MOLECULE
tmp/2gxfD00.pdb
 161 153 0 0 0
SMALL
GASTEIGER

@<TRIPOS>ATOM
      1  N         57.7850   74.3890   57.6960 N.3     7  ILE7       -0.1231
      2  CA        57.3410   73.2170   56.9460 C.3     7  ILE7        0.1692
      3  C         58.5740   72.4140   56.5200 C.2     7  ILE7        0.2591
      4  O         58.5490   71.1780   56.4380 O.2     7  ILE7       -0.2718
      5  CB        56.5740   73.6210   55.6790 C.3     7  ILE7        0.0266
      6  CG1       55.2550   74.2630   56.0720 C.3     7  ILE7        0.0019
      7  CG2       56.3560   72.4090   54.7780 C.3     7  ILE7        0.0020
      8  CD1       54.4720   74.7550   54.9050 C.3     7  ILE7        0.0001
      9  N         59.6580   73.1240   56.2370 N.am    8  ILE8       -0.1980
     10  CA        60.8720   72.4510   55.8430 C.3     8  ILE8        0.1595
     11  C         61.3030   71.5820   57.0140 C.2     8  ILE8        0.2287
     12  O         61.5030   70.3800   56.8510 O.2     8  ILE8       -0.2864
     13  CB        62.0110   73.4410   55.5320 C.3     8  ILE8        0.0276
     14  CG1       61.5610   74.4610   54.4910 C.3     8  ILE8        0.0022
     15  CG2       63.2210   72.6700   55.0190 C.3     8  ILE8        0.0022
     16  CD1       61.1720   73.8520   53.1500 C.3     8  ILE8        0.0001
     17  N         59.2050   68.6390   57.8050 N.3    11  CYS11      -0.1221
     18  CA        59.5160   67.5200   56.9050 C.3    11  CYS11       0.1808
     19  C         60.8510   66.8740   57.2430 C.2    11  CYS11       0.2601
     20  O         60.9710   65.6490   57.2940 O.2    11  CYS11      -0.2717
     21  CB        59.5420   68.0020   55.4590 C.3    11  CYS11       0.0970
     22  SG        57.9500   68.6070   54.9060 S.3    11  CYS11      -0.0800
     23  N         61.8460   67.7240   57.4660 N.am   12  ASP12      -0.1973
     24  CA        63.1890   67.2960   57.8170 C.3    12  ASP12       0.1709
     25  C         63.1310   66.3560   59.0260 C.2    12  ASP12       0.2293
     26  O         63.9120   65.4010   59.1300 O.2    12  ASP12      -0.2864
     27  CB        64.0300   68.5240   58.1500 C.3    12  ASP12       0.1436
     28  CG        65.5040   68.2770   57.9710 C.2    12  ASP12       0.3671
     29  OD1       66.0630   67.4150   58.7000 O.co2  12  ASP12      -0.2456
     30  OD2       66.0990   68.9460   57.0910 O.co2  12  ASP12      -0.2456
     31  N         61.3070   63.0030   58.3710 N.3    15  ILE15      -0.1245
     32  CA        62.2360   62.0930   57.7020 C.3    15  ILE15       0.1561
     33  C         63.1430   61.3830   58.7040 C.2    15  ILE15       0.2260
     34  O         63.4590   60.2060   58.5380 O.2    15  ILE15      -0.2867
     35  CB        63.1120   62.8380   56.6750 C.3    15  ILE15       0.0252
     36  CG1       62.2320   63.3960   55.5520 C.3    15  ILE15       0.0019
     37  CG2       64.1730   61.8970   56.1070 C.3    15  ILE15       0.0019
     38  CD1       63.0030   64.1540   54.4880 C.3    15  ILE15       0.0001
     39  N         54.9580   62.7600   56.2370 N.3    23  LEU23      -0.1245
     40  CA        55.7910   63.5900   55.3740 C.3    23  LEU23       0.1561
     41  C         55.1190   63.8510   54.0330 C.2    23  LEU23       0.2260
     42  O         55.3040   64.9110   53.4470 O.2    23  LEU23      -0.2867
     43  CB        57.1360   62.9040   55.1270 C.3    23  LEU23       0.0270
     44  CG        58.0640   63.5230   54.0760 C.3    23  LEU23       0.0019
     45  CD1       58.5260   64.8940   54.5470 C.3    23  LEU23       0.0001
     46  CD2       59.2670   62.6090   53.8310 C.3    23  LEU23       0.0001
     47  N         52.8490   66.9770   53.1350 N.3    25  TYR25      -0.1227
     48  CA        53.4370   68.2590   52.7760 C.3    25  TYR25       0.1736
     49  C         53.7120   68.3670   51.2740 C.2    25  TYR25       0.2595
     50  O         54.0560   69.4390   50.7730 O.2    25  TYR25      -0.2718
     51  CB        54.7420   68.4550   53.5330 C.3    25  TYR25       0.0548
     52  CG        54.5530   68.6560   55.0130 C.ar   25  TYR25      -0.0200
     53  CD1       53.9660   69.8300   55.5090 C.ar   25  TYR25      -0.0009
     54  CD2       54.9480   67.6690   55.9270 C.ar   25  TYR25      -0.0009
     55  CE1       53.7770   70.0140   56.8720 C.ar   25  TYR25       0.0417
     56  CE2       54.7640   67.8470   57.2840 C.ar   25  TYR25       0.0417
     57  CZ        54.1750   69.0200   57.7510 C.ar   25  TYR25       0.1957
     58  OH        53.9730   69.1910   59.1090 O.3    25  TYR25      -0.2866
     59  N         53.5620   67.2540   50.5630 N.am   26  TYR26      -0.1976
     60  CA        53.8050   67.2140   49.1280 C.3    26  TYR26       0.1639
     61  C         52.4960   67.2590   48.3530 C.2    26  TYR26       0.2290
     62  O         51.4620   66.8820   48.8830 O.2    26  TYR26      -0.2864
     63  CB        54.5800   65.9350   48.7830 C.3    26  TYR26       0.0560
     64  CG        56.0600   66.0250   49.0660 C.ar   26  TYR26      -0.0198
     65  CD1       56.8890   66.7890   48.2550 C.ar   26  TYR26      -0.0009
     66  CD2       56.6340   65.3450   50.1310 C.ar   26  TYR26      -0.0009
     67  CE1       58.2490   66.8730   48.4880 C.ar   26  TYR26       0.0417
     68  CE2       58.0010   65.4220   50.3720 C.ar   26  TYR26       0.0417
     69  CZ        58.8020   66.1870   49.5450 C.ar   26  TYR26       0.1957
     70  OH        60.1610   66.2700   49.7460 O.3    26  TYR26      -0.2866
     71  N         60.3780   65.1290   42.9370 N.3    32  LEU32      -0.1231
     72  CA        61.4640   65.2480   43.8980 C.3    32  LEU32       0.1693
     73  C         62.7490   64.7700   43.2460 C.2    32  LEU32       0.2591
     74  O         62.8050   63.6960   42.6430 O.2    32  LEU32      -0.2718
     75  CB        61.1320   64.4180   45.1550 C.3    32  LEU32       0.0284
     76  CG        62.1070   64.1290   46.2990 C.3    32  LEU32       0.0019
     77  CD1       62.8770   62.8570   46.0290 C.3    32  LEU32       0.0001
     78  CD2       63.0370   65.3230   46.4940 C.3    32  LEU32       0.0001
     79  N         63.7780   65.5950   43.3350 N.am   33  VAL33      -0.1980
     80  CA        65.0590   65.2220   42.7800 C.3    33  VAL33       0.1595
     81  C         65.8140   64.4970   43.9000 C.2    33  VAL33       0.2287
     82  O         66.2160   65.1220   44.8940 O.2    33  VAL33      -0.2864
     83  CB        65.8400   66.4700   42.3190 C.3    33  VAL33       0.0276
     84  CG1       67.1780   66.0670   41.7210 C.3    33  VAL33       0.0022
     85  CG2       65.0360   67.2220   41.3060 C.3    33  VAL33       0.0022
     86  N         62.1560   58.1660   49.4340 N.3    49  PHE49      -0.1241
     87  CA        62.5880   58.5010   50.7890 C.3    49  PHE49       0.1605
     88  C         62.8320   57.2570   51.6110 C.2    49  PHE49       0.2264
     89  O         63.8030   57.1750   52.3650 O.2    49  PHE49      -0.2867
     90  CB        61.5470   59.3670   51.4980 C.3    49  PHE49       0.0534
     91  CG        61.6570   60.8220   51.1750 C.ar   49  PHE49      -0.0203
     92  CD1       62.8110   61.5260   51.4900 C.ar   49  PHE49      -0.0042
     93  CD2       60.6170   61.4890   50.5440 C.ar   49  PHE49      -0.0042
     94  CE1       62.9270   62.8820   51.1770 C.ar   49  PHE49      -0.0003
     95  CE2       60.7190   62.8420   50.2270 C.ar   49  PHE49      -0.0003
     96  CZ        61.8730   63.5370   50.5430 C.ar   49  PHE49      -0.0000
     97  N         71.7150   57.4290   53.2480 N.3    56  PHE56      -0.1241
     98  CA        71.9680   58.8700   53.3370 C.3    56  PHE56       0.1605
     99  C         72.2760   59.1930   54.7950 C.2    56  PHE56       0.2264
    100  O         71.4460   58.9540   55.6740 O.2    56  PHE56      -0.2867
    101  CB        70.7270   59.6680   52.9140 C.3    56  PHE56       0.0534
    102  CG        70.8960   60.4610   51.6420 C.ar   56  PHE56      -0.0203
    103  CD1       71.0710   59.8130   50.4170 C.ar   56  PHE56      -0.0042
    104  CD2       70.8380   61.8540   51.6630 C.ar   56  PHE56      -0.0042
    105  CE1       71.1800   60.5340   49.2310 C.ar   56  PHE56      -0.0003
    106  CE2       70.9460   62.5820   50.4860 C.ar   56  PHE56      -0.0003
    107  CZ        71.1180   61.9200   49.2620 C.ar   56  PHE56      -0.0000
    108  N         74.8060   74.9860   50.8110 N.3    86  ARG86      -0.1245
    109  CA        73.9810   74.2860   49.8490 C.3    86  ARG86       0.1563
    110  C         72.7310   75.0910   49.5190 C.2    86  ARG86       0.2260
    111  O         71.7780   75.1450   50.3070 O.2    86  ARG86      -0.2867
    112  CB        73.5980   72.9070   50.4020 C.3    86  ARG86       0.0307
    113  CG        72.7330   72.0710   49.4500 C.3    86  ARG86       0.0489
    114  CD        73.0690   70.5720   49.4250 C.3    86  ARG86       0.2205
    115  NE        72.4400   69.8250   50.4910 N.pl3  86  ARG86      -0.0865
    116  CZ        71.6080   68.7860   50.4140 C.cat  86  ARG86       0.5346
    117  NH1       71.2030   68.2450   49.2640 N.pl3  86  ARG86       0.1354
    118  NH2       71.1830   68.2830   51.5620 N.pl3  86  ARG86       0.1354
    119  N         63.1190   75.2280   46.0550 N.3    90  TYR90      -0.1241
    120  CA        61.8840   74.4990   46.2690 C.3    90  TYR90       0.1605
    121  C         60.7450   75.3150   45.6570 C.2    90  TYR90       0.2264
    122  O         60.8320   76.5480   45.5350 O.2    90  TYR90      -0.2867
    123  CB        61.6190   74.3050   47.7770 C.3    90  TYR90       0.0534
    124  CG        62.7770   73.7160   48.5650 C.ar   90  TYR90      -0.0201
    125  CD1       63.3200   72.4770   48.2290 C.ar   90  TYR90      -0.0009
    126  CD2       63.3420   74.4100   49.6300 C.ar   90  TYR90      -0.0009
    127  CE1       64.3960   71.9480   48.9250 C.ar   90  TYR90       0.0417
    128  CE2       64.4230   73.8870   50.3360 C.ar   90  TYR90       0.0417
    129  CZ        64.9460   72.6550   49.9750 C.ar   90  TYR90       0.1957
    130  OH        66.0320   72.1370   50.6590 O.3    90  TYR90      -0.2866
    131  N         56.6000   75.7470   46.0910 N.3    92  PHE92      -0.1241
    132  CA        55.3620   75.3990   46.7850 C.3    92  PHE92       0.1605
    133  C         54.1660   76.0360   46.0880 C.2    92  PHE92       0.2264
    134  O         54.2880   77.0960   45.4730 O.2    92  PHE92      -0.2867
    135  CB        55.3870   75.8630   48.2400 C.3    92  PHE92       0.0534
    136  CG        56.4190   75.1820   49.0670 C.ar   92  PHE92      -0.0203
    137  CD1       57.7380   75.6260   49.0470 C.ar   92  PHE92      -0.0042
    138  CD2       56.0830   74.0820   49.8500 C.ar   92  PHE92      -0.0042
    139  CE1       58.7200   74.9880   49.7960 C.ar   92  PHE92      -0.0003
    140  CE2       57.0480   73.4290   50.6040 C.ar   92  PHE92      -0.0003
    141  CZ        58.3770   73.8820   50.5800 C.ar   92  PHE92      -0.0000
    142  N         54.3700   71.2060   48.7540 N.3   102  CYS102     -0.1235
    143  CA        55.5660   71.2340   47.9230 C.3   102  CYS102      0.1677
    144  C         55.2640   70.5450   46.5880 C.2   102  CYS102      0.2270
    145  O         54.6320   69.4950   46.5540 O.2   102  CYS102     -0.2867
    146  CB        56.7100   70.5450   48.6500 C.3   102  CYS102      0.0956
    147  SG        58.2840   70.7480   47.8370 S.3   102  CYS102     -0.0801
    148  N         60.7430   69.6820   44.6660 N.3   105  ASP105     -0.1239
    149  CA        61.7290   69.6120   45.7340 C.3   105  ASP105      0.1674
    150  C         63.0760   69.2530   45.1170 C.2   105  ASP105      0.2266
    151  O         63.3680   68.0790   44.8740 O.2   105  ASP105     -0.2867
    152  CB        61.3050   68.5310   46.7450 C.3   105  ASP105      0.1410
    153  CG        62.1960   68.4820   47.9830 C.2   105  ASP105      0.3668
    154  OD1       63.4200   68.7680   47.8720 O.co2 105  ASP105     -0.2456
    155  OD2       61.6700   68.1180   49.0630 O.co2 105  ASP105     -0.2456
    156  N         66.6460   69.8620   46.2230 N.3   107  SER107     -0.1217
    157  CA        67.6090   70.3170   47.2210 C.3   107  SER107      0.1889
    158  C         68.9890   70.6600   46.6520 C.2   107  SER107      0.2288
    159  O         69.8880   71.0470   47.4040 O.2   107  SER107     -0.2866
    160  CB        67.7520   69.2630   48.3160 C.3   107  SER107      0.2089
    161  OG        67.9990   67.9730   47.7660 O.3   107  SER107     -0.2183
@<TRIPOS>BOND
     1    85    83    1
     2    84    83    1
     3    83    80    1
     4    74    73    2
     5    80    79    1
     6    80    81    1
     7    71    72    1
     8    73    79   am
     9    73    72    1
    10    72    75    1
    11    81    82    2
    12   148   149    1
    13   151   150    2
    14   150   149    1
    15    75    76    1
    16   134   133    2
    17   122   121    2
    18   121   120    1
    19   149   152    1
    20    77    76    1
    21   119   120    1
    22   133   132    1
    23   131   132    1
    24   156   157    1
    25   120   123    1
    26    76    78    1
    27   145   144    2
    28   144   143    1
    29   158   157    1
    30   158   159    2
    31   152   153    1
    32   132   135    1
    33   157   160    1
    34   161   160    1
    35   123   124    1
    36   147   146    1
    37   154   153   ar
    38   143   146    1
    39   143   142    1
    40   153   155   ar
    41   125   124   ar
    42   125   127   ar
    43   135   136    1
    44    65    67   ar
    45    65    64   ar
    46    61    62    2
    47    61    60    1
    48    67    69   ar
    49   124   126   ar
    50    63    64    1
    51    63    60    1
    52   127   129   ar
    53   137   136   ar
    54   137   139   ar
    55    64    66   ar
    56   136   138   ar
    57    60    59    1
    58   105   107   ar
    59   105   103   ar
    60   107   106   ar
    61   117   116    1
    62   114   113    1
    63   114   115    1
    64    86    87    1
    65   113   112    1
    66   110   109    1
    67   110   111    2
    68    69    70    1
    69    69    68   ar
    70   126   128   ar
    71   139   141   ar
    72   109   112    1
    73   109   108    1
    74   138   140   ar
    75   129   128   ar
    76   129   130    1
    77    66    68   ar
    78    95    96   ar
    79    95    93   ar
    80   116   115    2
    81   116   118    1
    82   103   102   ar
    83   106   104   ar
    84    96    94   ar
    85    93    91   ar
    86    59    49   am
    87   141   140   ar
    88    50    49    2
    89    87    90    1
    90    87    88    1
    91    91    92   ar
    92    91    90    1
    93    94    92   ar
    94    49    48    1
    95    88    89    2
    96   102   104   ar
    97   102   101    1
    98    48    47    1
    99    48    51    1
   100   101    98    1
   101    16    14    1
   102    97    98    1
   103    98    99    1
   104    42    41    2
   105    51    52    1
   106    46    44    1
   107    41    40    1
   108    44    45    1
   109    44    43    1
   110    38    36    1
   111    14    13    1
   112     7     5    1
   113    99   100    2
   114     8     6    1
   115    22    21    1
   116    52    53   ar
   117    52    54   ar
   118    15    13    1
   119    43    40    1
   120    40    39    1
   121    21    18    1
   122    53    55   ar
   123    13    10    1
   124    36    35    1
   125     5     6    1
   126     5     2    1
   127    10     9    1
   128    10    11    1
   129    54    56   ar
   130    37    35    1
   131     9     3   am
   132     4     3    2
   133     3     2    1
   134    35    32    1
   135    12    11    2
   136    55    57   ar
   137    18    19    1
   138    18    17    1
   139     2     1    1
   140    30    28   ar
   141    19    20    2
   142    19    23   am
   143    56    57   ar
   144    23    24    1
   145    32    31    1
   146    32    33    1
   147    57    58    1
   148    24    27    1
   149    24    25    1
   150    28    27    1
   151    28    29   ar
   152    34    33    2
   153    25    26    2
