@<TRIPOS>MOLECULE
tmp/2gyiA00.pdb
 148 140 0 0 0
SMALL
GASTEIGER

@<TRIPOS>ATOM
      1  N         24.1450   11.6910  -12.7940 N.3    14  TRP14      -0.1241
      2  CA        23.8260   10.7810  -13.8930 C.3    14  TRP14       0.1605
      3  C         22.9120   11.3090  -15.0270 C.2    14  TRP14       0.2264
      4  O         22.8750   10.7080  -16.1060 O.2    14  TRP14      -0.2867
      5  CB        23.1930    9.5110  -13.2990 C.3    14  TRP14       0.0550
      6  CG        21.7870    9.6490  -12.6990 C.ar   14  TRP14       0.0003
      7  CD1       20.6920    9.4470  -13.5100 C.ar   14  TRP14       0.0946
      8  CD2       21.4370    9.9500  -11.4010 C.ar   14  TRP14       0.0152
      9  NE1       19.6460    9.6280  -12.7360 N.ar   14  TRP14      -0.2442
     10  CE2       20.0390    9.9200  -11.4820 C.ar   14  TRP14       0.0810
     11  CE3       22.0270   10.2360  -10.1830 C.ar   14  TRP14       0.0012
     12  CZ2       19.2330   10.1760  -10.3710 C.ar   14  TRP14       0.0191
     13  CZ3       21.2230   10.4870   -9.0750 C.ar   14  TRP14       0.0001
     14  CH2       19.8360   10.4630   -9.1680 C.ar   14  TRP14       0.0015
     15  N         24.6780    8.7290   -7.2330 N.3    52  HIS52      -0.1241
     16  CA        24.7580    7.3170   -6.8560 C.3    52  HIS52       0.1621
     17  C         26.2140    7.2410   -6.3800 C.2    52  HIS52       0.2264
     18  O         27.0720    7.9920   -6.8860 O.2    52  HIS52      -0.2867
     19  CB        24.6820    6.2990   -8.0170 C.3    52  HIS52       0.0745
     20  CG        23.3110    6.2500   -8.6630 C.ar   52  HIS52       0.0817
     21  ND1       22.7570    7.1150   -9.5100 N.ar   52  HIS52      -0.2268
     22  CD2       22.3690    5.3000   -8.3730 C.ar   52  HIS52       0.1154
     23  CE1       21.5060    6.7320   -9.7040 C.ar   52  HIS52       0.1986
     24  NE2       21.2910    5.6390   -9.0030 N.ar   52  HIS52      -0.2212
     25  N         21.8470    8.0780   -3.3420 N.3    88  THR88      -0.1203
     26  CA        21.3270    6.7320   -3.6440 C.3    88  THR88       0.1994
     27  C         22.5290    5.8230   -3.9010 C.2    88  THR88       0.2618
     28  O         23.7190    6.2470   -3.9340 O.2    88  THR88      -0.2717
     29  CB        20.3310    6.8820   -4.8890 C.3    88  THR88       0.1784
     30  OG1       19.6190    5.6570   -5.0940 O.3    88  THR88      -0.2211
     31  CG2       21.0720    7.3360   -6.1290 C.3    88  THR88       0.0376
     32  N         22.1870    4.5410   -4.0410 N.am   89  THR89      -0.1952
     33  CA        23.2070    3.5210   -4.2760 C.3    89  THR89       0.1897
     34  C         22.9860    2.9490   -5.6840 C.2    89  THR89       0.2313
     35  O         21.8540    2.8760   -6.1360 O.2    89  THR89      -0.2863
     36  CB        23.1290    2.3580   -3.2290 C.3    89  THR89       0.1794
     37  OG1       22.8210    2.9100   -1.9580 O.3    89  THR89      -0.2208
     38  CG2       24.4420    1.6300   -3.0990 C.3    89  THR89       0.0378
     39  N         22.5840   -1.8160   -9.9250 N.3    92  PHE92      -0.1241
     40  CA        22.0190   -2.2220  -11.2100 C.3    92  PHE92       0.1605
     41  C         22.9980   -2.2270  -12.3780 C.2    92  PHE92       0.2264
     42  O         22.7980   -2.9700  -13.3360 O.2    92  PHE92      -0.2867
     43  CB        20.7940   -1.3000  -11.5180 C.3    92  PHE92       0.0534
     44  CG        21.0240    0.2040  -11.3530 C.ar   92  PHE92      -0.0203
     45  CD1       21.8320    0.9020  -12.2370 C.ar   92  PHE92      -0.0042
     46  CD2       20.4080    0.8810  -10.3210 C.ar   92  PHE92      -0.0042
     47  CE1       22.0210    2.2620  -12.0960 C.ar   92  PHE92      -0.0003
     48  CE2       20.6070    2.2520  -10.1880 C.ar   92  PHE92      -0.0003
     49  CZ        21.4100    2.9440  -11.0720 C.ar   92  PHE92      -0.0000
     50  N         17.4850    7.5590   -1.4540 N.3   133  VAL133     -0.1245
     51  CA        16.6830    6.8550   -2.4450 C.3   133  VAL133      0.1561
     52  C         17.0990    5.4060   -2.6660 C.2   133  VAL133      0.2260
     53  O         18.2770    5.0850   -2.7240 O.2   133  VAL133     -0.2867
     54  CB        16.7630    7.6400   -3.7680 C.3   133  VAL133      0.0252
     55  CG1       16.2680    6.8210   -4.9880 C.3   133  VAL133      0.0019
     56  CG2       15.7960    8.8270   -3.6300 C.3   133  VAL133      0.0019
     57  N         16.1580    2.6220   -5.4660 N.3   135  TRP135     -0.1241
     58  CA        15.5000    2.1420   -6.6630 C.3   135  TRP135      0.1605
     59  C         16.0930    0.7600   -6.9790 C.2   135  TRP135      0.2264
     60  O         17.2160    0.6140   -7.4570 O.2   135  TRP135     -0.2867
     61  CB        15.7290    3.0900   -7.8760 C.3   135  TRP135      0.0550
     62  CG        15.2400    2.4550   -9.1770 C.ar  135  TRP135      0.0003
     63  CD1       13.9270    2.0720   -9.3400 C.ar  135  TRP135      0.0946
     64  CD2       15.9990    2.2110  -10.3120 C.ar  135  TRP135      0.0152
     65  NE1       13.8630    1.5930  -10.5750 N.ar  135  TRP135     -0.2442
     66  CE2       15.0580    1.6580  -11.1720 C.ar  135  TRP135      0.0810
     67  CE3       17.2840    2.3460  -10.7340 C.ar  135  TRP135      0.0012
     68  CZ2       15.3630    1.2380  -12.4520 C.ar  135  TRP135      0.0191
     69  CZ3       17.5870    1.9240  -12.0190 C.ar  135  TRP135      0.0001
     70  CH2       16.6540    1.3750  -12.8680 C.ar  135  TRP135      0.0015
     71  N         11.9160    3.9860   -4.6570 N.3   179  GLU179     -0.1245
     72  CA        11.4450    4.4350   -5.9540 C.3   179  GLU179      0.1567
     73  C         10.8380    3.2430   -6.6490 C.2   179  GLU179      0.2260
     74  O         11.5610    2.2690   -6.8560 O.2   179  GLU179     -0.2867
     75  CB        12.5700    4.9340   -6.7820 C.3   179  GLU179      0.0388
     76  CG        12.1610    5.6000   -8.1000 C.3   179  GLU179      0.1160
     77  CD        13.3420    6.3960   -8.5900 C.2   179  GLU179      0.3649
     78  OE1       14.2630    6.7340   -7.8210 O.co2 179  GLU179     -0.2457
     79  OE2       13.3370    6.6770   -9.7740 O.co2 179  GLU179     -0.2457
     80  N          9.0970    1.2720  -10.0300 N.3   181  LYS181     -0.1245
     81  CA         9.2200    1.3280  -11.4880 C.3   181  LYS181      0.1561
     82  C          8.6490   -0.0080  -11.9310 C.2   181  LYS181      0.2260
     83  O          8.9240   -1.0000  -11.2400 O.2   181  LYS181     -0.2867
     84  CB        10.6620    1.3980  -12.0000 C.3   181  LYS181      0.0271
     85  CG        10.7970    1.6260  -13.5190 C.3   181  LYS181      0.0035
     86  CD        12.2700    1.6540  -13.8390 C.3   181  LYS181      0.0206
     87  CE        12.5970    2.1640  -15.2390 C.3   181  LYS181      0.1093
     88  NZ        14.0400    2.3410  -15.4700 N.3   181  LYS181     -0.1314
     89  N          8.5250    8.5830   -9.7620 N.3   215  GLU215     -0.1245
     90  CA         8.9120    9.2760  -10.9700 C.3   215  GLU215      0.1567
     91  C          7.7550    9.3340  -11.9420 C.2   215  GLU215      0.2260
     92  O          6.9700    8.3710  -12.0630 O.2   215  GLU215     -0.2867
     93  CB        10.1350    8.5770  -11.5970 C.3   215  GLU215      0.0388
     94  CG        10.5850    9.1300  -12.9370 C.3   215  GLU215      0.1160
     95  CD        11.9500    8.5940  -13.2950 C.2   215  GLU215      0.3649
     96  OE1       12.8330    8.6840  -12.5080 O.co2 215  GLU215     -0.2457
     97  OE2       12.1890    8.1230  -14.3830 O.co2 215  GLU215     -0.2457
     98  N          7.8290    6.5450  -14.5660 N.3   218  HIS218     -0.1241
     99  CA         7.5750    5.1720  -14.0940 C.3   218  HIS218      0.1621
    100  C          6.0990    4.8390  -13.9410 C.2   218  HIS218      0.2264
    101  O          5.6100    3.7750  -14.3440 O.2   218  HIS218     -0.2867
    102  CB         8.2500    4.9620  -12.7800 C.3   218  HIS218      0.0745
    103  CG         9.7630    5.0570  -12.7690 C.ar  218  HIS218      0.0817
    104  ND1       10.5190    4.8670  -11.6980 N.ar  218  HIS218     -0.2268
    105  CD2       10.6100    5.3340  -13.8030 C.ar  218  HIS218      0.1154
    106  CE1       11.7640    4.9960  -12.0120 C.ar  218  HIS218      0.1986
    107  NE2       11.8340    5.2780  -13.3110 N.ar  218  HIS218     -0.2212
    108  N         11.1220   12.4080   -8.6230 N.3   243  ASP243     -0.1239
    109  CA        11.8720   12.5470   -9.8720 C.3   243  ASP243      0.1674
    110  C         10.9150   12.8850  -11.0150 C.2   243  ASP243      0.2266
    111  O          9.9300   12.2230  -11.3170 O.2   243  ASP243     -0.2867
    112  CB        12.5840   11.2840  -10.2250 C.3   243  ASP243      0.1410
    113  CG        13.5760   10.9160   -9.1740 C.2   243  ASP243      0.3668
    114  OD1       14.0510   11.7160   -8.3950 O.co2 243  ASP243     -0.2456
    115  OD2       13.8750    9.7740   -9.0440 O.co2 243  ASP243     -0.2456
    116  N         11.4550    3.4310  -20.9440 N.3   253  ASP253     -0.1239
    117  CA        11.5390    4.7260  -20.2690 C.3   253  ASP253      0.1674
    118  C         12.4890    5.6920  -21.0200 C.2   253  ASP253      0.2266
    119  O         13.6850    5.4740  -21.2050 O.2   253  ASP253     -0.2867
    120  CB        11.9910    4.5500  -18.8310 C.3   253  ASP253      0.1410
    121  CG        13.1460    3.5970  -18.5460 C.2   253  ASP253      0.3668
    122  OD1       13.0940    2.4920  -19.0590 O.co2 253  ASP253     -0.2456
    123  OD2       14.0760    3.9310  -17.7960 O.co2 253  ASP253     -0.2456
    124  N         12.6990    9.1670  -20.2450 N.3   255  ASP255     -0.1239
    125  CA        13.2290   10.2320  -19.3760 C.3   255  ASP255      0.1674
    126  C         13.4250   11.5320  -20.1740 C.2   255  ASP255      0.2266
    127  O         14.5330   12.0430  -20.3290 O.2   255  ASP255     -0.2867
    128  CB        14.6100    9.8260  -18.7420 C.3   255  ASP255      0.1410
    129  CG        14.6580    8.5540  -17.8780 C.2   255  ASP255      0.3668
    130  OD1       13.6170    7.9650  -17.5780 O.co2 255  ASP255     -0.2456
    131  OD2       15.7670    8.1810  -17.4870 O.co2 255  ASP255     -0.2456
    132  N         15.1240   13.8120  -13.1080 N.3   285  ASP285     -0.1239
    133  CA        15.7680   12.5710  -13.4860 C.3   285  ASP285      0.1674
    134  C         15.4840   12.3770  -14.9760 C.2   285  ASP285      0.2266
    135  O         14.6080   11.6130  -15.3930 O.2   285  ASP285     -0.2867
    136  CB        15.2380   11.3470  -12.6890 C.3   285  ASP285      0.1410
    137  CG        16.2220   10.1850  -12.8670 C.2   285  ASP285      0.3668
    138  OD1       16.8800   10.0280  -13.8950 O.co2 285  ASP285     -0.2456
    139  OD2       16.4280    9.4560  -11.9120 O.co2 285  ASP285     -0.2456
    140  N         17.2430   12.4090  -19.1850 N.3   287  LYS287     -0.1245
    141  CA        18.3830   12.1750  -20.0200 C.3   287  LYS287      0.1561
    142  C         18.3220   13.2080  -21.1370 C.2   287  LYS287      0.2260
    143  O         17.2970   13.2270  -21.8190 O.2   287  LYS287     -0.2867
    144  CB        18.2500   10.7590  -20.4860 C.3   287  LYS287      0.0271
    145  CG        18.6270    9.7850  -19.3830 C.3   287  LYS287      0.0035
    146  CD        18.3720    8.3760  -19.8710 C.3   287  LYS287      0.0206
    147  CE        19.1780    7.3750  -19.0620 C.3   287  LYS287      0.1093
    148  NZ        18.7630    7.2780  -17.6700 N.3   287  LYS287     -0.1314
@<TRIPOS>BOND
     1   143   142    2
     2   119   118    2
     3   142   141    1
     4   118   117    1
     5   116   117    1
     6   144   141    1
     7   144   145    1
     8   127   126    2
     9   117   120    1
    10   124   125    1
    11   126   125    1
    12   141   140    1
    13   146   145    1
    14   146   147    1
    15   125   128    1
    16   147   148    1
    17   122   121   ar
    18   120   121    1
    19   128   129    1
    20   121   123   ar
    21   129   130   ar
    22   129   131   ar
    23     4     3    2
    24    88    87    1
    25   135   134    2
    26    87    86    1
    27     3     2    1
    28   134   133    1
    29    98    99    1
    30    97    95   ar
    31   101   100    2
    32    99   100    1
    33    99   102    1
    34   138   137   ar
    35     2     5    1
    36     2     1    1
    37    86    85    1
    38   105   107   ar
    39   105   103   ar
    40    85    84    1
    41     7     9   ar
    42     7     6   ar
    43   133   132    1
    44   133   136    1
    45    42    41    2
    46   107   106   ar
    47     5     6    1
    48    95    94    1
    49    95    96   ar
    50    94    93    1
    51    70    68   ar
    52    70    69   ar
    53   137   136    1
    54   137   139   ar
    55   102   103    1
    56   103   104   ar
    57     9    10   ar
    58     6     8   ar
    59    68    66   ar
    60    41    40    1
    61    45    47   ar
    62    45    44   ar
    63    47    49   ar
    64    92    91    2
    65    69    67   ar
    66   106   104   ar
    67    84    81    1
    68    91    90    1
    69    82    81    1
    70    82    83    2
    71    93    90    1
    72    43    44    1
    73    43    40    1
    74    81    80    1
    75    10     8   ar
    76    10    12   ar
    77     8    11   ar
    78    44    46   ar
    79   111   110    2
    80    40    39    1
    81    66    65   ar
    82    66    64   ar
    83    49    48   ar
    84   110   109    1
    85    90    89    1
    86    67    64   ar
    87    65    63   ar
    88    12    14   ar
    89    46    48   ar
    90    64    62   ar
    91   112   109    1
    92   112   113    1
    93    11    13   ar
    94   109   108    1
    95    79    77   ar
    96    23    21   ar
    97    23    24   ar
    98    21    20   ar
    99    63    62   ar
   100    62    61    1
   101   113   115   ar
   102   113   114   ar
   103    14    13   ar
   104    24    22   ar
   105    20    22   ar
   106    20    19    1
   107    77    76    1
   108    77    78   ar
   109    76    75    1
   110    19    16    1
   111    61    58    1
   112    60    59    2
   113    15    16    1
   114    59    58    1
   115    18    17    2
   116    74    73    2
   117    16    17    1
   118    75    72    1
   119    58    57    1
   120    73    72    1
   121    35    34    2
   122    31    29    1
   123    72    71    1
   124    34    33    1
   125    30    29    1
   126    55    54    1
   127    29    26    1
   128    33    32    1
   129    33    36    1
   130    32    27   am
   131    28    27    2
   132    27    26    1
   133    54    56    1
   134    54    51    1
   135    26    25    1
   136    36    38    1
   137    36    37    1
   138    53    52    2
   139    52    51    1
   140    51    50    1
