@<TRIPOS>MOLECULE
tmp/2gyuB01.pdb
 195 195 0 0 0
SMALL
GASTEIGER

@<TRIPOS>ATOM
      1  N         11.2930   -9.8420  -46.5160 N.3    69  TYR69      -0.1241
      2  CA        11.0020  -10.8130  -45.4720 C.3    69  TYR69       0.1605
      3  C          9.5300  -10.7610  -45.0520 C.2    69  TYR69       0.2264
      4  O          8.9570   -9.6810  -44.8240 O.2    69  TYR69      -0.2867
      5  CB        11.9160  -10.5370  -44.2720 C.3    69  TYR69       0.0534
      6  CG        11.7360  -11.4790  -43.1070 C.ar   69  TYR69      -0.0201
      7  CD1       11.0790  -11.0580  -41.9440 C.ar   69  TYR69      -0.0009
      8  CD2       12.2140  -12.7910  -43.1610 C.ar   69  TYR69      -0.0009
      9  CE1       10.8990  -11.9190  -40.8660 C.ar   69  TYR69       0.0417
     10  CE2       12.0420  -13.6620  -42.0830 C.ar   69  TYR69       0.0417
     11  CZ        11.3830  -13.2170  -40.9440 C.ar   69  TYR69       0.1957
     12  OH        11.2120  -14.0620  -39.8720 O.3    69  TYR69      -0.2866
     13  N          6.9190  -12.0940  -42.1530 N.3    71  ASP71      -0.1239
     14  CA         6.9520  -12.5560  -40.7720 C.3    71  ASP71       0.1674
     15  C          6.1980  -13.8560  -40.5490 C.2    71  ASP71       0.2266
     16  O          5.1050  -14.0510  -41.0720 O.2    71  ASP71      -0.2867
     17  CB         6.4010  -11.4940  -39.8350 C.3    71  ASP71       0.1410
     18  CG         6.8590  -11.7030  -38.4170 C.2    71  ASP71       0.3668
     19  OD1        6.1100  -12.3560  -37.6450 O.co2  71  ASP71      -0.2456
     20  OD2        7.9920  -11.2500  -38.1030 O.co2  71  ASP71      -0.2456
     21  N          0.5390   -6.5910  -41.0880 N.3    83  TRP83      -0.1241
     22  CA         1.7320   -5.9090  -41.5490 C.3    83  TRP83       0.1605
     23  C          2.3420   -6.6240  -42.7400 C.2    83  TRP83       0.2264
     24  O          3.1500   -6.0480  -43.4500 O.2    83  TRP83      -0.2867
     25  CB         2.7370   -5.8200  -40.4110 C.3    83  TRP83       0.0550
     26  CG         2.1620   -5.1600  -39.2140 C.ar   83  TRP83       0.0003
     27  CD1        1.8980   -5.7420  -38.0190 C.ar   83  TRP83       0.0946
     28  CD2        1.7290   -3.7940  -39.1030 C.ar   83  TRP83       0.0152
     29  NE1        1.3590   -4.8270  -37.1520 N.ar   83  TRP83      -0.2442
     30  CE2        1.2430   -3.6200  -37.7910 C.ar   83  TRP83       0.0810
     31  CE3        1.7240   -2.6980  -39.9790 C.ar   83  TRP83       0.0012
     32  CZ2        0.7610   -2.3890  -37.3200 C.ar   83  TRP83       0.0191
     33  CZ3        1.2450   -1.4740  -39.5190 C.ar   83  TRP83       0.0001
     34  CH2        0.7640   -1.3310  -38.1970 C.ar   83  TRP83       0.0015
     35  N          8.2510   -0.4630  -41.0810 N.3   118  GLY118     -0.1210
     36  CA         8.5930   -1.8830  -41.2250 C.3   118  GLY118      0.1956
     37  C         10.0950   -2.1270  -41.1030 C.2   118  GLY118      0.2612
     38  O         10.6350   -3.0450  -41.7250 O.2   118  GLY118     -0.2717
     39  N         10.7650   -1.3050  -40.2950 N.am  119  GLY119     -0.1956
     40  CA        12.1980   -1.4240  -39.9980 C.3   119  GLY119      0.1869
     41  C         13.1550   -1.3360  -41.1690 C.2   119  GLY119      0.2309
     42  O         14.2850   -1.8200  -41.0900 O.2   119  GLY119     -0.2863
     43  N         12.9850   -3.0810  -43.6990 N.3   121  TYR121     -0.1227
     44  CA        13.1130   -4.4370  -44.2680 C.3   121  TYR121      0.1736
     45  C         11.7650   -4.9430  -44.7610 C.2   121  TYR121      0.2596
     46  O         11.6810   -6.0320  -45.3240 O.2   121  TYR121     -0.2718
     47  CB        13.7210   -5.4470  -43.2630 C.3   121  TYR121      0.0548
     48  CG        12.7890   -5.8160  -42.1170 C.ar  121  TYR121     -0.0200
     49  CD1       11.8000   -6.8040  -42.2720 C.ar  121  TYR121     -0.0009
     50  CD2       12.8940   -5.1830  -40.8780 C.ar  121  TYR121     -0.0009
     51  CE1       10.9240   -7.1210  -41.2310 C.ar  121  TYR121      0.0417
     52  CE2       12.0180   -5.5030  -39.8260 C.ar  121  TYR121      0.0417
     53  CZ        11.0470   -6.4640  -40.0130 C.ar  121  TYR121      0.1957
     54  OH        10.1970   -6.7760  -38.9750 O.3   121  TYR121     -0.2866
     55  N         10.7090   -4.1500  -44.5510 N.am  122  SER122     -0.1952
     56  CA         9.3650   -4.5900  -44.8810 C.3   122  SER122      0.1924
     57  C          8.4220   -3.4200  -45.0320 C.2   122  SER122      0.2314
     58  O          8.8040   -2.2730  -44.8140 O.2   122  SER122     -0.2863
     59  CB         8.8360   -5.5470  -43.8140 C.3   122  SER122      0.2116
     60  OG         8.7540   -4.8800  -42.5600 O.3   122  SER122     -0.2180
     61  N          7.3470    4.8820  -37.6350 N.3   200  SER200     -0.1217
     62  CA         8.4940    3.9950  -37.3820 C.3   200  SER200      0.1889
     63  C          9.5670    4.3180  -38.3920 C.2   200  SER200      0.2288
     64  O          9.9860    5.4810  -38.4990 O.2   200  SER200     -0.2866
     65  CB         8.0710    2.5120  -37.4340 C.3   200  SER200      0.2089
     66  OG         8.9870    1.6910  -36.7180 O.3   200  SER200     -0.2183
     67  N         19.4880  -12.0280  -44.7620 N.3   275  GLU275     -0.1231
     68  CA        19.3350  -10.6660  -44.2770 C.3   275  GLU275      0.1699
     69  C         19.6690  -10.5070  -42.8080 C.2   275  GLU275      0.2592
     70  O         20.4500   -9.6420  -42.4160 O.2   275  GLU275     -0.2718
     71  CB        17.8750  -10.2480  -44.4060 C.3   275  GLU275      0.0402
     72  CG        17.5700   -9.4410  -45.5740 C.3   275  GLU275      0.1161
     73  CD        16.4230   -8.5300  -45.3000 C.2   275  GLU275      0.3649
     74  OE1       15.2860   -9.0140  -45.0820 O.co2 275  GLU275     -0.2457
     75  OE2       16.6840   -7.3120  -45.2660 O.co2 275  GLU275     -0.2457
     76  N         19.0240  -11.3460  -42.0080 N.am  276  TRP276     -0.1976
     77  CA        18.9650  -11.1820  -40.5720 C.3   276  TRP276      0.1640
     78  C         20.2230  -11.7400  -39.8860 C.2   276  TRP276      0.2290
     79  O         20.4430  -11.5150  -38.6950 O.2   276  TRP276     -0.2864
     80  CB        17.6870  -11.8580  -40.0760 C.3   276  TRP276      0.0576
     81  CG        17.0430  -11.2440  -38.8560 C.ar  276  TRP276      0.0006
     82  CD1       17.5190  -10.2050  -38.0850 C.ar  276  TRP276      0.0946
     83  CD2       15.8220  -11.6770  -38.2290 C.ar  276  TRP276      0.0152
     84  NE1       16.6610   -9.9630  -37.0330 N.ar  276  TRP276     -0.2442
     85  CE2       15.6180  -10.8540  -37.0930 C.ar  276  TRP276      0.0810
     86  CE3       14.8810  -12.6820  -38.5180 C.ar  276  TRP276      0.0012
     87  CZ2       14.5080  -11.0120  -36.2400 C.ar  276  TRP276      0.0191
     88  CZ3       13.7730  -12.8330  -37.6760 C.ar  276  TRP276      0.0001
     89  CH2       13.5990  -11.9980  -36.5500 C.ar  276  TRP276      0.0015
     90  N         23.5630   -8.9540  -38.4500 N.3   279  LEU279     -0.1245
     91  CA        23.5720   -8.1040  -37.2670 C.3   279  LEU279      0.1561
     92  C         24.7410   -8.4520  -36.3390 C.2   279  LEU279      0.2260
     93  O         25.0400   -9.6330  -36.1310 O.2   279  LEU279     -0.2867
     94  CB        22.2350   -8.1820  -36.5300 C.3   279  LEU279      0.0270
     95  CG        21.0390   -7.4620  -37.1770 C.3   279  LEU279      0.0019
     96  CD1       19.7630   -7.8620  -36.4780 C.3   279  LEU279      0.0001
     97  CD2       21.2090   -5.9500  -37.1810 C.3   279  LEU279      0.0001
     98  N         19.7210   -9.0260  -30.8850 N.3   283  SER283     -0.1202
     99  CA        19.0780   -7.7710  -30.5820 C.3   283  SER283      0.2020
    100  C         17.6090   -7.7720  -30.9400 C.2   283  SER283      0.2619
    101  O         17.1220   -8.6980  -31.5680 O.2   283  SER283     -0.2717
    102  CB        19.8050   -6.6160  -31.2860 C.3   283  SER283      0.2103
    103  OG        20.1100   -6.9210  -32.6290 O.3   283  SER283     -0.2182
    104  N         16.9030   -6.7380  -30.4810 N.am  284  ILE284     -0.1965
    105  CA        15.5750   -6.4110  -30.9760 C.3   284  ILE284      0.1727
    106  C         15.6270   -4.9330  -31.3360 C.2   284  ILE284      0.2616
    107  O         16.5380   -4.2320  -30.8990 O.2   284  ILE284     -0.2715
    108  CB        14.4450   -6.6900  -29.9410 C.3   284  ILE284      0.0290
    109  CG1       14.7220   -5.9840  -28.6060 C.3   284  ILE284      0.0022
    110  CG2       14.2370   -8.1900  -29.7690 C.3   284  ILE284      0.0023
    111  CD1       13.5600   -5.9710  -27.6470 C.3   284  ILE284      0.0001
    112  N         14.6670   -4.4850  -32.1440 N.am  285  PHE285     -0.1960
    113  CA        14.6110   -3.1160  -32.6710 C.3   285  PHE285      0.1771
    114  C         15.9240   -2.7610  -33.3450 C.2   285  PHE285      0.2619
    115  O         16.4160   -1.6420  -33.2120 O.2   285  PHE285     -0.2715
    116  CB        14.2790   -2.0960  -31.5750 C.3   285  PHE285      0.0574
    117  CG        13.3370   -0.9990  -32.0220 C.ar  285  PHE285     -0.0200
    118  CD1       13.5450   -0.3150  -33.2200 C.ar  285  PHE285     -0.0042
    119  CD2       12.2350   -0.6610  -31.2430 C.ar  285  PHE285     -0.0042
    120  CE1       12.6730    0.6590  -33.6390 C.ar  285  PHE285     -0.0003
    121  CE2       11.3440    0.3400  -31.6510 C.ar  285  PHE285     -0.0003
    122  CZ        11.5650    1.0010  -32.8530 C.ar  285  PHE285     -0.0000
    123  N         16.5060   -3.7380  -34.0290 N.am  286  ARG286     -0.1963
    124  CA        17.7130   -3.5330  -34.7930 C.3   286  ARG286      0.1729
    125  C         17.4930   -4.2040  -36.1360 C.2   286  ARG286      0.2616
    126  O         16.8730   -5.2760  -36.2190 O.2   286  ARG286     -0.2715
    127  CB        18.9280   -4.0880  -34.0510 C.3   286  ARG286      0.0348
    128  CG        20.1540   -3.1650  -34.0800 C.3   286  ARG286      0.0492
    129  CD        20.4340   -2.3900  -32.7980 C.3   286  ARG286      0.2205
    130  NE        19.3140   -1.5740  -32.4010 N.pl3 286  ARG286     -0.0865
    131  CZ        19.2490   -0.8150  -31.3090 C.cat 286  ARG286      0.5346
    132  NH1       20.2470   -0.7200  -30.4450 N.pl3 286  ARG286      0.1354
    133  NH2       18.1430   -0.1370  -31.0920 N.pl3 286  ARG286      0.1354
    134  N         17.9440   -3.5390  -37.1980 N.am  287  PHE287     -0.1960
    135  CA        17.5960   -3.9360  -38.5640 C.3   287  PHE287      0.1771
    136  C         18.8440   -3.9080  -39.4200 C.2   287  PHE287      0.2620
    137  O         19.7040   -3.0340  -39.2500 O.2   287  PHE287     -0.2715
    138  CB        16.5150   -3.0120  -39.1360 C.3   287  PHE287      0.0574
    139  CG        15.3780   -2.7410  -38.1730 C.ar  287  PHE287     -0.0200
    140  CD1       14.4840   -3.7630  -37.8120 C.ar  287  PHE287     -0.0042
    141  CD2       15.2040   -1.4730  -37.6210 C.ar  287  PHE287     -0.0042
    142  CE1       13.4390   -3.5130  -36.9170 C.ar  287  PHE287     -0.0003
    143  CE2       14.1680   -1.2120  -36.7250 C.ar  287  PHE287     -0.0003
    144  CZ        13.2800   -2.2360  -36.3760 C.ar  287  PHE287     -0.0000
    145  N         18.9360   -4.8740  -40.3260 N.am  288  SER288     -0.1950
    146  CA        20.1870   -5.1870  -41.0060 C.3   288  SER288      0.1924
    147  C         20.6010   -4.1730  -42.0640 C.2   288  SER288      0.2314
    148  O         21.7450   -3.7190  -42.0890 O.2   288  SER288     -0.2863
    149  CB        20.1120   -6.5840  -41.6090 C.3   288  SER288      0.2116
    150  OG        20.3700   -7.5580  -40.6160 O.3   288  SER288     -0.2180
    151  N          5.7610   -4.4120  -28.3350 N.3   327  TYR327     -0.1227
    152  CA         5.7080   -5.1690  -29.5790 C.3   327  TYR327      0.1736
    153  C          6.9810   -5.9620  -29.8500 C.2   327  TYR327      0.2595
    154  O          6.9170   -7.1120  -30.2650 O.2   327  TYR327     -0.2718
    155  CB         5.4430   -4.2030  -30.7400 C.3   327  TYR327      0.0548
    156  CG         5.0550   -4.8720  -32.0250 C.ar  327  TYR327     -0.0200
    157  CD1        3.7510   -5.2870  -32.2250 C.ar  327  TYR327     -0.0009
    158  CD2        5.9880   -5.0980  -33.0400 C.ar  327  TYR327     -0.0009
    159  CE1        3.3640   -5.9110  -33.3980 C.ar  327  TYR327      0.0417
    160  CE2        5.6080   -5.7510  -34.2350 C.ar  327  TYR327      0.0417
    161  CZ         4.2810   -6.1460  -34.3970 C.ar  327  TYR327      0.1957
    162  OH         3.8320   -6.7710  -35.5380 O.3   327  TYR327     -0.2866
    163  N          8.1310   -5.3270  -29.6140 N.am  328  PHE328     -0.1976
    164  CA         9.4400   -5.8590  -29.9850 C.3   328  PHE328      0.1639
    165  C          9.9310   -6.9630  -29.0620 C.2   328  PHE328      0.2290
    166  O         10.8380   -7.7220  -29.4270 O.2   328  PHE328     -0.2864
    167  CB        10.4640   -4.7120  -30.0580 C.3   328  PHE328      0.0560
    168  CG        10.1090   -3.6860  -31.0800 C.ar  328  PHE328     -0.0200
    169  CD1        9.2900   -2.6120  -30.7440 C.ar  328  PHE328     -0.0042
    170  CD2       10.5180   -3.8380  -32.4030 C.ar  328  PHE328     -0.0042
    171  CE1        8.9080   -1.6960  -31.6950 C.ar  328  PHE328     -0.0003
    172  CE2       10.1550   -2.9020  -33.3710 C.ar  328  PHE328     -0.0003
    173  CZ         9.3500   -1.8420  -33.0180 C.ar  328  PHE328     -0.0000
    174  N          9.7150  -10.7910  -30.0050 N.3   331  TYR331     -0.1241
    175  CA        10.5350  -11.1160  -31.1750 C.3   331  TYR331      0.1605
    176  C         12.0200  -11.3490  -30.8620 C.2   331  TYR331      0.2264
    177  O         12.8620  -11.2960  -31.7690 O.2   331  TYR331     -0.2867
    178  CB        10.4400   -9.9820  -32.2080 C.3   331  TYR331      0.0534
    179  CG         9.2260  -10.0480  -33.1060 C.ar  331  TYR331     -0.0201
    180  CD1        8.1040   -9.2380  -32.8690 C.ar  331  TYR331     -0.0009
    181  CD2        9.2040  -10.9060  -34.2050 C.ar  331  TYR331     -0.0009
    182  CE1        6.9910   -9.2900  -33.7000 C.ar  331  TYR331      0.0417
    183  CE2        8.0940  -10.9680  -35.0410 C.ar  331  TYR331      0.0417
    184  CZ         6.9970  -10.1600  -34.7870 C.ar  331  TYR331      0.1957
    185  OH         5.9110  -10.2440  -35.6230 O.3   331  TYR331     -0.2866
    186  N          3.4930   -0.0930  -30.5970 N.3   437  HIS437     -0.1241
    187  CA         4.0620    0.5040  -31.8090 C.3   437  HIS437      0.1621
    188  C          3.2380    0.1580  -33.0480 C.2   437  HIS437      0.2264
    189  O          2.9970   -1.0240  -33.3450 O.2   437  HIS437     -0.2867
    190  CB         5.4610   -0.0650  -31.9620 C.3   437  HIS437      0.0745
    191  CG         6.3050    0.6050  -32.9950 C.ar  437  HIS437      0.0817
    192  ND1        6.8910    1.8360  -32.7950 N.ar  437  HIS437     -0.2268
    193  CD2        6.7300    0.1780  -34.2090 C.ar  437  HIS437      0.1154
    194  CE1        7.6270    2.1510  -33.8470 C.ar  437  HIS437      0.1986
    195  NE2        7.5390    1.1640  -34.7230 N.ar  437  HIS437     -0.2212
@<TRIPOS>BOND
     1     1     2    1
     2    72    73    1
     3    72    71    1
     4     2     3    1
     5     2     5    1
     6    46    45    2
     7    73    75   ar
     8    73    74   ar
     9     3     4    2
    10    57    56    1
    11    57    58    2
    12    56    55    1
    13    56    59    1
    14    67    68    1
    15    45    55   am
    16    45    44    1
    17    71    68    1
    18    68    69    1
    19     5     6    1
    20    44    43    1
    21    44    47    1
    22    59    60    1
    23    24    23    2
    24    47    48    1
    25     8     6   ar
    26     8    10   ar
    27     6     7   ar
    28    69    70    2
    29    69    76   am
    30    23    22    1
    31    49    48   ar
    32    49    51   ar
    33    13    14    1
    34    48    50   ar
    35   148   147    2
    36    10    11   ar
    37   147   146    1
    38    76    77    1
    39     7     9   ar
    40    38    37    2
    41   149   146    1
    42   149   150    1
    43    22    21    1
    44    22    25    1
    45    51    53   ar
    46    36    37    1
    47    36    35    1
    48    41    42    2
    49    41    40    1
    50    37    39   am
    51    16    15    2
    52   146   145    1
    53    11     9   ar
    54    11    12    1
    55    50    52   ar
    56    14    15    1
    57    14    17    1
    58    77    80    1
    59    77    78    1
    60    25    26    1
    61   145   136   am
    62    39    40    1
    63    80    81    1
    64    53    52   ar
    65    53    54    1
    66    31    33   ar
    67    31    28   ar
    68    78    79    2
    69    17    18    1
    70    33    34   ar
    71   136   137    2
    72   136   135    1
    73    26    28   ar
    74    26    27   ar
    75   138   135    1
    76   138   139    1
    77    28    30   ar
    78    81    83   ar
    79    81    82   ar
    80   135   134    1
    81    86    83   ar
    82    86    88   ar
    83    64    63    2
    84    90    91    1
    85    18    20   ar
    86    18    19   ar
    87    63    62    1
    88    83    85   ar
    89    34    32   ar
    90   139   140   ar
    91   139   141   ar
    92    82    84   ar
    93    27    29   ar
    94   140   142   ar
    95    30    32   ar
    96    30    29   ar
    97    88    89   ar
    98    61    62    1
    99   141   143   ar
   100    65    62    1
   101    65    66    1
   102    91    94    1
   103    91    92    1
   104   134   125   am
   105    97    95    1
   106    95    94    1
   107    95    96    1
   108    85    84   ar
   109    85    87   ar
   110   142   144   ar
   111   143   144   ar
   112    89    87   ar
   113    92    93    2
   114   126   125    2
   115   125   124    1
   116   185   184    1
   117   162   161    1
   118   183   184   ar
   119   183   181   ar
   120   124   127    1
   121   124   123    1
   122   184   182   ar
   123   195   193   ar
   124   195   194   ar
   125   161   160   ar
   126   161   159   ar
   127   160   158   ar
   128   193   191   ar
   129   181   179   ar
   130   128   127    1
   131   128   129    1
   132   123   114   am
   133   194   192   ar
   134   182   180   ar
   135   120   118   ar
   136   120   122   ar
   137   159   157   ar
   138   172   173   ar
   139   172   170   ar
   140   114   115    2
   141   114   113    1
   142   189   188    2
   143   118   117   ar
   144   179   180   ar
   145   179   178    1
   146   188   187    1
   147   158   156   ar
   148   173   171   ar
   149   191   192   ar
   150   191   190    1
   151   122   121   ar
   152   129   130    1
   153   113   112    1
   154   113   116    1
   155   103   102    1
   156   170   168   ar
   157   130   131    2
   158   157   156   ar
   159   178   175    1
   160   112   106   am
   161   156   155    1
   162   117   116    1
   163   117   119   ar
   164   190   187    1
   165   187   186    1
   166   177   176    2
   167   171   169   ar
   168   121   119   ar
   169   101   100    2
   170   106   105    1
   171   106   107    2
   172   131   133    1
   173   131   132    1
   174   102    99    1
   175   175   176    1
   176   175   174    1
   177   168   169   ar
   178   168   167    1
   179   105   104    1
   180   105   108    1
   181   100    99    1
   182   100   104   am
   183    98    99    1
   184   155   152    1
   185   154   153    2
   186   167   164    1
   187   164   163    1
   188   164   165    1
   189   108   110    1
   190   108   109    1
   191   153   163   am
   192   153   152    1
   193   152   151    1
   194   166   165    2
   195   109   111    1
