@<TRIPOS>MOLECULE
tmp/2gyvB00.pdb
 175 173 0 0 0
SMALL
GASTEIGER

@<TRIPOS>ATOM
      1  N         11.3260   -9.5220  -45.3330 N.3    69  TYR69      -0.1241
      2  CA        11.0550  -10.5060  -44.3280 C.3    69  TYR69       0.1605
      3  C          9.5910  -10.4630  -43.9420 C.2    69  TYR69       0.2264
      4  O          9.0070   -9.4060  -43.7350 O.2    69  TYR69      -0.2867
      5  CB        11.9320  -10.2430  -43.1050 C.3    69  TYR69       0.0534
      6  CG        11.6280  -11.1940  -41.9930 C.ar   69  TYR69      -0.0201
      7  CD1       11.0220  -10.7400  -40.8160 C.ar   69  TYR69      -0.0009
      8  CD2       11.8960  -12.5530  -42.1260 C.ar   69  TYR69      -0.0009
      9  CE1       10.7190  -11.6140  -39.7860 C.ar   69  TYR69       0.0417
     10  CE2       11.5930  -13.4400  -41.1010 C.ar   69  TYR69       0.0417
     11  CZ        10.9960  -12.9610  -39.9310 C.ar   69  TYR69       0.1957
     12  OH        10.6900  -13.8260  -38.8920 O.3    69  TYR69      -0.2866
     13  N          7.0400  -11.5910  -41.1020 N.3    71  ASP71      -0.1239
     14  CA         7.0700  -11.9950  -39.7190 C.3    71  ASP71       0.1674
     15  C          6.1800  -13.1980  -39.5320 C.2    71  ASP71       0.2266
     16  O          5.0090  -13.1780  -39.8850 O.2    71  ASP71      -0.2867
     17  CB         6.6250  -10.8520  -38.8230 C.3    71  ASP71       0.1410
     18  CG         6.6140  -11.2270  -37.3640 C.2    71  ASP71       0.3668
     19  OD1        6.1520  -10.3820  -36.5730 O.co2  71  ASP71      -0.2456
     20  OD2        7.0600  -12.3450  -37.0000 O.co2  71  ASP71      -0.2456
     21  N          6.3910  -15.0800  -36.4440 N.3    73  LEU73      -0.1245
     22  CA         6.4860  -15.4540  -35.0390 C.3    73  LEU73       0.1561
     23  C          5.1650  -16.0320  -34.5400 C.2    73  LEU73       0.2260
     24  O          5.1410  -17.0920  -33.8840 O.2    73  LEU73      -0.2867
     25  CB         6.9080  -14.2740  -34.1640 C.3    73  LEU73       0.0270
     26  CG         7.3150  -14.6650  -32.7310 C.3    73  LEU73       0.0019
     27  CD1        8.5090  -15.6500  -32.7040 C.3    73  LEU73       0.0001
     28  CD2        7.6090  -13.4320  -31.9050 C.3    73  LEU73       0.0001
     29  N          0.6080   -6.5200  -39.9990 N.3    83  TRP83      -0.1241
     30  CA         1.7820   -5.8040  -40.4230 C.3    83  TRP83       0.1605
     31  C          2.4550   -6.5160  -41.5700 C.2    83  TRP83       0.2264
     32  O          3.2490   -5.9200  -42.2950 O.2    83  TRP83      -0.2867
     33  CB         2.7470   -5.6640  -39.2610 C.3    83  TRP83       0.0550
     34  CG         2.1450   -4.9400  -38.1020 C.ar   83  TRP83       0.0003
     35  CD1        1.7200   -5.4830  -36.9290 C.ar   83  TRP83       0.0946
     36  CD2        1.8800   -3.5420  -38.0150 C.ar   83  TRP83       0.0152
     37  NE1        1.2180   -4.5070  -36.1100 N.ar   83  TRP83      -0.2442
     38  CE2        1.3130   -3.3030  -36.7490 C.ar   83  TRP83       0.0810
     39  CE3        2.0900   -2.4640  -38.8750 C.ar   83  TRP83       0.0012
     40  CZ2        0.9500   -2.0230  -36.3160 C.ar   83  TRP83       0.0191
     41  CZ3        1.7160   -1.1770  -38.4440 C.ar   83  TRP83       0.0001
     42  CH2        1.1570   -0.9790  -37.1780 C.ar   83  TRP83       0.0015
     43  N          6.4020    2.2270  -41.4460 N.3   117  GLY117     -0.1210
     44  CA         7.5210    1.6870  -40.7080 C.3   117  GLY117      0.1956
     45  C          7.6130    0.1980  -40.9520 C.2   117  GLY117      0.2612
     46  O          6.9900   -0.3320  -41.8710 O.2   117  GLY117     -0.2717
     47  N          8.4000   -0.4730  -40.1250 N.am  118  GLY118     -0.1956
     48  CA         8.7330   -1.8580  -40.3600 C.3   118  GLY118      0.1869
     49  C         10.2200   -2.0760  -40.1840 C.2   118  GLY118      0.2309
     50  O         10.7920   -3.0060  -40.7710 O.2   118  GLY118     -0.2863
     51  N         13.1100   -2.9690  -42.4910 N.3   121  TYR121     -0.1227
     52  CA        13.2110   -4.3030  -43.0630 C.3   121  TYR121      0.1736
     53  C         11.8660   -4.7900  -43.6020 C.2   121  TYR121      0.2596
     54  O         11.7970   -5.8630  -44.1920 O.2   121  TYR121     -0.2718
     55  CB        13.7450   -5.3060  -42.0320 C.3   121  TYR121      0.0548
     56  CG        12.7580   -5.5440  -40.9390 C.ar  121  TYR121     -0.0200
     57  CD1       11.7190   -6.4590  -41.1040 C.ar  121  TYR121     -0.0009
     58  CD2       12.8330   -4.8380  -39.7490 C.ar  121  TYR121     -0.0009
     59  CE1       10.7900   -6.6700  -40.1210 C.ar  121  TYR121      0.0417
     60  CE2       11.8910   -5.0390  -38.7380 C.ar  121  TYR121      0.0417
     61  CZ        10.8750   -5.9580  -38.9460 C.ar  121  TYR121      0.1957
     62  OH         9.9360   -6.1700  -37.9660 O.3   121  TYR121     -0.2866
     63  N         10.7980   -4.0360  -43.3790 N.am  122  SER122     -0.1952
     64  CA         9.4680   -4.4860  -43.7690 C.3   122  SER122      0.1924
     65  C          8.5420   -3.2940  -43.8970 C.2   122  SER122      0.2314
     66  O          8.9370   -2.1690  -43.6610 O.2   122  SER122     -0.2863
     67  CB         8.8940   -5.4580  -42.7420 C.3   122  SER122      0.2116
     68  OG         8.7450   -4.8300  -41.4770 O.3   122  SER122     -0.2180
     69  N          5.3850    6.3710  -39.1310 N.3   199  GLU199     -0.1231
     70  CA         5.4960    5.8620  -37.8030 C.3   199  GLU199      0.1699
     71  C          6.6540    4.8950  -37.7140 C.2   199  GLU199      0.2592
     72  O          6.8070    4.0370  -38.5780 O.2   199  GLU199     -0.2718
     73  CB         4.2020    5.1940  -37.4000 C.3   199  GLU199      0.0402
     74  CG         4.2270    4.6210  -36.0070 C.3   199  GLU199      0.1161
     75  CD         4.6880    3.1830  -35.9830 C.2   199  GLU199      0.3649
     76  OE1        4.8050    2.5730  -37.0600 O.co2 199  GLU199     -0.2457
     77  OE2        4.9410    2.6620  -34.8810 O.co2 199  GLU199     -0.2457
     78  N          7.4530    5.0300  -36.6620 N.am  200  SER200     -0.1952
     79  CA         8.5310    4.1020  -36.4100 C.3   200  SER200      0.1924
     80  C          9.5620    4.2550  -37.5140 C.2   200  SER200      0.2314
     81  O         10.0060    5.3550  -37.7480 O.2   200  SER200     -0.2863
     82  CB         7.9760    2.6970  -36.3370 C.3   200  SER200      0.2116
     83  OG         8.9790    1.8430  -35.8540 O.3   200  SER200     -0.2180
     84  N         16.9390  -11.8430  -47.8440 N.3   272  VAL272     -0.1245
     85  CA        16.0990  -11.8320  -46.6630 C.3   272  VAL272      0.1561
     86  C         16.3810  -13.0350  -45.7480 C.2   272  VAL272      0.2260
     87  O         16.2830  -12.9440  -44.5310 O.2   272  VAL272     -0.2867
     88  CB        14.6260  -11.8020  -47.0960 C.3   272  VAL272      0.0252
     89  CG1       13.7140  -11.7400  -45.9250 C.3   272  VAL272      0.0019
     90  CG2       14.3880  -10.6170  -47.9990 C.3   272  VAL272      0.0019
     91  N         19.2470  -11.6900  -43.8650 N.3   275  GLU275     -0.1231
     92  CA        19.0850  -10.3050  -43.4120 C.3   275  GLU275      0.1699
     93  C         19.3980  -10.1690  -41.9230 C.2   275  GLU275      0.2592
     94  O         20.3260   -9.4590  -41.5250 O.2   275  GLU275     -0.2718
     95  CB        17.6430   -9.9020  -43.6620 C.3   275  GLU275      0.0402
     96  CG        17.4410   -8.4790  -44.0520 C.3   275  GLU275      0.1161
     97  CD        16.0710   -8.2670  -44.5940 C.2   275  GLU275      0.3649
     98  OE1       15.1870   -7.9390  -43.7850 O.co2 275  GLU275     -0.2457
     99  OE2       15.8710   -8.4520  -45.8210 O.co2 275  GLU275     -0.2457
    100  N         18.6200  -10.9000  -41.1270 N.am  276  TRP276     -0.1976
    101  CA        18.6300  -10.8840  -39.6670 C.3   276  TRP276      0.1640
    102  C         20.0230  -11.1850  -39.1050 C.2   276  TRP276      0.2290
    103  O         20.4590  -10.5790  -38.1130 O.2   276  TRP276     -0.2864
    104  CB        17.6120  -11.9300  -39.1920 C.3   276  TRP276      0.0576
    105  CG        17.3240  -12.0230  -37.7090 C.ar  276  TRP276      0.0006
    106  CD1       17.3440  -13.1700  -36.9330 C.ar  276  TRP276      0.0946
    107  CD2       16.9430  -10.9520  -36.8290 C.ar  276  TRP276      0.0152
    108  NE1       17.0120  -12.8650  -35.6290 N.ar  276  TRP276     -0.2442
    109  CE2       16.7610  -11.5160  -35.5350 C.ar  276  TRP276      0.0810
    110  CE3       16.7470   -9.5690  -37.0040 C.ar  276  TRP276      0.0012
    111  CZ2       16.3870  -10.7390  -34.4170 C.ar  276  TRP276      0.0191
    112  CZ3       16.3680   -8.7940  -35.9020 C.ar  276  TRP276      0.0001
    113  CH2       16.1950   -9.3790  -34.6200 C.ar  276  TRP276      0.0015
    114  N         17.9060   -3.3050  -36.5150 N.3   287  PHE287     -0.1227
    115  CA        17.6010   -3.8320  -37.8280 C.3   287  PHE287      0.1736
    116  C         18.8340   -3.8100  -38.6730 C.2   287  PHE287      0.2596
    117  O         19.6640   -2.9170  -38.5720 O.2   287  PHE287     -0.2718
    118  CB        16.4740   -3.0220  -38.4400 C.3   287  PHE287      0.0547
    119  CG        15.3900   -2.6810  -37.4520 C.ar  287  PHE287     -0.0202
    120  CD1       14.5760   -3.6880  -36.9110 C.ar  287  PHE287     -0.0042
    121  CD2       15.2050   -1.3770  -37.0340 C.ar  287  PHE287     -0.0042
    122  CE1       13.5770   -3.3910  -35.9810 C.ar  287  PHE287     -0.0003
    123  CE2       14.2140   -1.0620  -36.1010 C.ar  287  PHE287     -0.0003
    124  CZ        13.3960   -2.0670  -35.5750 C.ar  287  PHE287     -0.0000
    125  N         18.9750   -4.8230  -39.5020 N.am  288  SER288     -0.1952
    126  CA        20.2440   -5.0450  -40.1570 C.3   288  SER288      0.1924
    127  C         20.5220   -3.9950  -41.2220 C.2   288  SER288      0.2314
    128  O         21.6560   -3.5400  -41.3910 O.2   288  SER288     -0.2863
    129  CB        20.2650   -6.4490  -40.7290 C.3   288  SER288      0.2116
    130  OG        20.0040   -7.3880  -39.6910 O.3   288  SER288     -0.2180
    131  N          5.9860   -4.1740  -27.5330 N.3   327  TYR327     -0.1227
    132  CA         5.8930   -4.9320  -28.7540 C.3   327  TYR327      0.1736
    133  C          7.1560   -5.7180  -29.0510 C.2   327  TYR327      0.2595
    134  O          7.0860   -6.8750  -29.4340 O.2   327  TYR327     -0.2718
    135  CB         5.6020   -3.9750  -29.9000 C.3   327  TYR327      0.0548
    136  CG         4.9530   -4.6180  -31.0750 C.ar  327  TYR327     -0.0200
    137  CD1        3.9800   -3.9510  -31.8050 C.ar  327  TYR327     -0.0009
    138  CD2        5.3110   -5.8910  -31.4670 C.ar  327  TYR327     -0.0009
    139  CE1        3.3770   -4.5610  -32.9140 C.ar  327  TYR327      0.0417
    140  CE2        4.7300   -6.4990  -32.5580 C.ar  327  TYR327      0.0417
    141  CZ         3.7640   -5.8400  -33.2760 C.ar  327  TYR327      0.1957
    142  OH         3.2050   -6.4870  -34.3570 O.3   327  TYR327     -0.2866
    143  N          8.3130   -5.0970  -28.8670 N.am  328  PHE328     -0.1976
    144  CA         9.5760   -5.6980  -29.2990 C.3   328  PHE328      0.1639
    145  C         10.0750   -6.8070  -28.4200 C.2   328  PHE328      0.2290
    146  O         10.9100   -7.5910  -28.8310 O.2   328  PHE328     -0.2864
    147  CB        10.6300   -4.6150  -29.4490 C.3   328  PHE328      0.0560
    148  CG        10.2420   -3.5950  -30.4480 C.ar  328  PHE328     -0.0200
    149  CD1        9.3590   -2.5450  -30.0910 C.ar  328  PHE328     -0.0042
    150  CD2       10.6630   -3.7170  -31.7780 C.ar  328  PHE328     -0.0042
    151  CE1        8.9300   -1.6050  -31.0500 C.ar  328  PHE328     -0.0003
    152  CE2       10.2520   -2.7780  -32.7450 C.ar  328  PHE328     -0.0003
    153  CZ         9.3930   -1.7260  -32.3800 C.ar  328  PHE328     -0.0000
    154  N          9.9110  -10.5370  -29.3010 N.3   331  TYR331     -0.1241
    155  CA        10.7440  -10.9000  -30.4320 C.3   331  TYR331      0.1605
    156  C         12.2090  -11.1810  -30.1070 C.2   331  TYR331      0.2264
    157  O         13.1040  -10.8190  -30.8870 O.2   331  TYR331     -0.2867
    158  CB        10.6890   -9.7750  -31.4510 C.3   331  TYR331      0.0534
    159  CG         9.4110   -9.7210  -32.2370 C.ar  331  TYR331     -0.0201
    160  CD1        8.4430   -8.7630  -31.9570 C.ar  331  TYR331     -0.0009
    161  CD2        9.1880  -10.6000  -33.2860 C.ar  331  TYR331     -0.0009
    162  CE1        7.2780   -8.7010  -32.6840 C.ar  331  TYR331      0.0417
    163  CE2        8.0300  -10.5370  -34.0190 C.ar  331  TYR331      0.0417
    164  CZ         7.0790   -9.5920  -33.7120 C.ar  331  TYR331      0.1957
    165  OH         5.9300   -9.5280  -34.4490 O.3   331  TYR331     -0.2866
    166  N          3.7680   -0.0620  -29.8800 N.3   437  HIS437     -0.1241
    167  CA         4.3270    0.4670  -31.0800 C.3   437  HIS437      0.1621
    168  C          3.4470    0.1860  -32.2970 C.2   437  HIS437      0.2264
    169  O          3.3080   -0.9650  -32.7160 O.2   437  HIS437     -0.2867
    170  CB         5.6480   -0.2580  -31.2310 C.3   437  HIS437      0.0745
    171  CG         6.5820    0.4140  -32.1470 C.ar  437  HIS437      0.0817
    172  ND1        7.1900    1.6060  -31.8240 N.ar  437  HIS437     -0.2268
    173  CD2        6.9920    0.0960  -33.3990 C.ar  437  HIS437      0.1154
    174  CE1        7.9560    1.9880  -32.8350 C.ar  437  HIS437      0.1986
    175  NE2        7.8570    1.0860  -33.8010 N.ar  437  HIS437     -0.2212
@<TRIPOS>BOND
     1    90    88    1
     2    84    85    1
     3    88    85    1
     4    88    89    1
     5    85    86    1
     6    99    97   ar
     7    86    87    2
     8     1     2    1
     9    97    96    1
    10    97    98   ar
    11     2     3    1
    12     2     5    1
    13    54    53    2
    14    96    95    1
    15     3     4    2
    16    65    64    1
    17    65    66    2
    18    91    92    1
    19    64    63    1
    20    64    67    1
    21    95    92    1
    22    53    63   am
    23    53    52    1
    24    92    93    1
    25     5     6    1
    26    52    51    1
    27    52    55    1
    28    67    68    1
    29    32    31    2
    30     8     6   ar
    31     8    10   ar
    32    55    56    1
    33     6     7   ar
    34    93    94    2
    35    93   100   am
    36    46    45    2
    37    31    30    1
    38    43    44    1
    39   128   127    2
    40   127   126    1
    41   100   101    1
    42    57    56   ar
    43    57    59   ar
    44    13    14    1
    45    10    11   ar
    46    45    44    1
    47    45    47   am
    48    56    58   ar
    49     7     9   ar
    50    50    49    2
    51   129   126    1
    52   129   130    1
    53    30    29    1
    54    30    33    1
    55    48    49    1
    56    48    47    1
    57   126   125    1
    58    59    61   ar
    59    11     9   ar
    60    11    12    1
    61    16    15    2
    62    58    60   ar
    63    14    15    1
    64    14    17    1
    65   101   104    1
    66   101   102    1
    67   125   116   am
    68    33    34    1
    69   104   105    1
    70    69    70    1
    71   102   103    2
    72    61    60   ar
    73    61    62    1
    74    39    41   ar
    75    39    36   ar
    76    17    18    1
    77   116   117    2
    78   116   115    1
    79    72    71    2
    80    41    42   ar
    81   118   115    1
    82   118   119    1
    83    34    36   ar
    84    34    35   ar
    85    36    38   ar
    86   115   114    1
    87    70    71    1
    88    70    73    1
    89    81    80    2
    90    71    78   am
    91   105   106   ar
    92   105   107   ar
    93    80    79    1
    94   119   121   ar
    95   119   120   ar
    96    73    74    1
    97    18    20   ar
    98    18    19   ar
    99    42    40   ar
   100    76    75   ar
   101   121   123   ar
   102   110   107   ar
   103   110   112   ar
   104   106   108   ar
   105    35    37   ar
   106   120   122   ar
   107   107   109   ar
   108    38    40   ar
   109    38    37   ar
   110    78    79    1
   111    21    22    1
   112    79    82    1
   113    82    83    1
   114   123   124   ar
   115    74    75    1
   116    75    77   ar
   117   122   124   ar
   118   112   113   ar
   119   108   109   ar
   120   109   111   ar
   121    22    23    1
   122    22    25    1
   123   113   111   ar
   124    23    24    2
   125   165   164    1
   126   142   141    1
   127    25    26    1
   128   163   164   ar
   129   163   161   ar
   130   175   173   ar
   131   175   174   ar
   132   164   162   ar
   133   173   171   ar
   134   161   159   ar
   135   141   139   ar
   136   141   140   ar
   137   139   137   ar
   138   174   172   ar
   139   152   153   ar
   140   152   150   ar
   141    26    27    1
   142    26    28    1
   143   169   168    2
   144   162   160   ar
   145   140   138   ar
   146   153   151   ar
   147   168   167    1
   148   159   160   ar
   149   159   158    1
   150   171   172   ar
   151   171   170    1
   152   137   136   ar
   153   150   148   ar
   154   138   136   ar
   155   158   155    1
   156   170   167    1
   157   167   166    1
   158   136   135    1
   159   151   149   ar
   160   157   156    2
   161   148   149   ar
   162   148   147    1
   163   155   156    1
   164   155   154    1
   165   135   132    1
   166   147   144    1
   167   134   133    2
   168   144   143    1
   169   144   145    1
   170   133   143   am
   171   133   132    1
   172   146   145    2
   173   132   131    1
