@<TRIPOS>MOLECULE
tmp/2gywA01.pdb
 143 144 0 0 0
SMALL
GASTEIGER

@<TRIPOS>ATOM
      1  N         39.2320   22.9470   17.8490 N.3    72  TYR72      -0.1241
      2  CA        38.9090   24.1110   17.0240 C.3    72  TYR72       0.1605
      3  C         37.6460   24.7930   17.5200 C.2    72  TYR72       0.2264
      4  O         36.6710   24.1210   17.8020 O.2    72  TYR72      -0.2867
      5  CB        38.6920   23.6440   15.5730 C.3    72  TYR72       0.0534
      6  CG        38.2890   24.7320   14.5830 C.ar   72  TYR72      -0.0201
      7  CD1       36.9780   24.7980   14.0830 C.ar   72  TYR72      -0.0009
      8  CD2       39.2120   25.6800   14.1400 C.ar   72  TYR72      -0.0009
      9  CE1       36.6020   25.7680   13.1780 C.ar   72  TYR72       0.0417
     10  CE2       38.8350   26.6860   13.2240 C.ar   72  TYR72       0.0417
     11  CZ        37.5220   26.7100   12.7560 C.ar   72  TYR72       0.1957
     12  OH        37.1420   27.6720   11.8520 O.3    72  TYR72      -0.2866
     13  N         34.7050   27.3910   16.2910 N.3    74  ASP74      -0.1239
     14  CA        34.1030   27.9130   15.0670 C.3    74  ASP74       0.1674
     15  C         33.9940   29.4380   15.0180 C.2    74  ASP74       0.2266
     16  O         33.6590   30.0870   16.0060 O.2    74  ASP74      -0.2867
     17  CB        32.7340   27.2820   14.8390 C.3    74  ASP74       0.1410
     18  CG        32.2320   27.4900   13.4250 C.2    74  ASP74       0.3668
     19  OD1       32.3920   26.5570   12.6050 O.co2  74  ASP74      -0.2456
     20  OD2       31.7100   28.5950   13.1270 O.co2  74  ASP74      -0.2456
     21  N         27.0980   25.0250   19.5220 N.3    86  TRP86      -0.1241
     22  CA        27.9560   23.8640   19.3750 C.3    86  TRP86       0.1605
     23  C         29.3960   24.0740   19.9010 C.2    86  TRP86       0.2264
     24  O         30.1600   23.1110   20.0160 O.2    86  TRP86      -0.2867
     25  CB        28.0000   23.4380   17.9060 C.3    86  TRP86       0.0550
     26  CG        26.6530   23.2210   17.2880 C.ar   86  TRP86       0.0003
     27  CD1       26.0460   24.0290   16.3990 C.ar   86  TRP86       0.0946
     28  CD2       25.7500   22.1120   17.5110 C.ar   86  TRP86       0.0152
     29  NE1       24.8260   23.5110   16.0350 N.ar   86  TRP86      -0.2442
     30  CE2       24.6110   22.3390   16.7070 C.ar   86  TRP86       0.0810
     31  CE3       25.7980   20.9580   18.3050 C.ar   86  TRP86       0.0012
     32  CZ2       23.5140   21.4510   16.6660 C.ar   86  TRP86       0.0191
     33  CZ3       24.7080   20.0610   18.2680 C.ar   86  TRP86       0.0001
     34  CH2       23.5790   20.3200   17.4500 C.ar   86  TRP86       0.0015
     35  N         36.3370   16.4080   15.3200 N.3   124  TYR124     -0.1241
     36  CA        37.3190   17.4970   15.5610 C.3   124  TYR124      0.1605
     37  C         36.7880   18.4160   16.6670 C.2   124  TYR124      0.2264
     38  O         37.4680   19.3270   17.0930 O.2   124  TYR124     -0.2867
     39  CB        37.6390   18.3010   14.2700 C.3   124  TYR124      0.0534
     40  CG        36.5040   19.1810   13.8220 C.ar  124  TYR124     -0.0201
     41  CD1       36.3610   20.4720   14.3300 C.ar  124  TYR124     -0.0009
     42  CD2       35.5440   18.7180   12.9190 C.ar  124  TYR124     -0.0009
     43  CE1       35.3120   21.2960   13.9480 C.ar  124  TYR124      0.0417
     44  CE2       34.4690   19.5350   12.5250 C.ar  124  TYR124      0.0417
     45  CZ        34.3730   20.8310   13.0450 C.ar  124  TYR124      0.1957
     46  OH        33.3180   21.6540   12.6930 O.3   124  TYR124     -0.2866
     47  N         46.0910   22.4460   16.4340 N.3   275  VAL275     -0.1245
     48  CA        44.7380   22.8510   16.0050 C.3   275  VAL275      0.1561
     49  C         44.8290   23.8180   14.8210 C.2   275  VAL275      0.2260
     50  O         44.0270   23.7110   13.8800 O.2   275  VAL275     -0.2867
     51  CB        43.8970   23.4480   17.1670 C.3   275  VAL275      0.0252
     52  CG1       42.7140   24.2860   16.6380 C.3   275  VAL275      0.0019
     53  CG2       43.4130   22.3340   18.1180 C.3   275  VAL275      0.0019
     54  N         45.4750   21.6620   11.6630 N.3   278  GLU278     -0.1231
     55  CA        44.7810   20.4040   11.3600 C.3   278  GLU278      0.1699
     56  C         43.9470   20.4320   10.0800 C.2   278  GLU278      0.2592
     57  O         43.9080   19.4350    9.3630 O.2   278  GLU278     -0.2718
     58  CB        44.0060   19.8220   12.5490 C.3   278  GLU278      0.0402
     59  CG        42.9210   20.6950   13.1220 C.3   278  GLU278      0.1161
     60  CD        41.8770   19.9160   13.9350 C.2   278  GLU278      0.3649
     61  OE1       41.1740   20.5590   14.7330 O.co2 278  GLU278     -0.2457
     62  OE2       41.7110   18.6790   13.7570 O.co2 278  GLU278     -0.2457
     63  N         43.3290   21.5640    9.7590 N.am  279  TRP279     -0.1976
     64  CA        42.4950   21.6210    8.5540 C.3   279  TRP279      0.1640
     65  C         43.2890   21.7270    7.2570 C.2   279  TRP279      0.2290
     66  O         42.7440   21.5720    6.1680 O.2   279  TRP279     -0.2864
     67  CB        41.4530   22.7340    8.6390 C.3   279  TRP279      0.0576
     68  CG        40.1180   22.2270    8.2500 C.ar  279  TRP279      0.0006
     69  CD1       39.3450   22.6630    7.2110 C.ar  279  TRP279      0.0946
     70  CD2       39.3950   21.1430    8.8670 C.ar  279  TRP279      0.0152
     71  NE1       38.1740   21.9410    7.1620 N.ar  279  TRP279     -0.2442
     72  CE2       38.1840   20.9970    8.1610 C.ar  279  TRP279      0.0810
     73  CE3       39.6450   20.3000    9.9720 C.ar  279  TRP279      0.0012
     74  CZ2       37.2100   20.0330    8.5210 C.ar  279  TRP279      0.0191
     75  CZ3       38.6850   19.3340   10.3290 C.ar  279  TRP279      0.0001
     76  CH2       37.4860   19.2140    9.6030 C.ar  279  TRP279      0.0015
     77  N         32.1240   18.3780    4.5440 N.3   288  PHE288     -0.1241
     78  CA        31.7860   17.0790    5.1500 C.3   288  PHE288      0.1605
     79  C         32.9420   16.1030    5.0440 C.2   288  PHE288      0.2264
     80  O         32.7190   14.8860    4.9310 O.2   288  PHE288     -0.2867
     81  CB        30.5550   16.4390    4.5210 C.3   288  PHE288      0.0534
     82  CG        29.5690   15.8740    5.5140 C.ar  288  PHE288     -0.0203
     83  CD1       29.9650   14.9620    6.4980 C.ar  288  PHE288     -0.0042
     84  CD2       28.1890   16.2230    5.4190 C.ar  288  PHE288     -0.0042
     85  CE1       29.0200   14.4100    7.3910 C.ar  288  PHE288     -0.0003
     86  CE2       27.2360   15.6960    6.3090 C.ar  288  PHE288     -0.0003
     87  CZ        27.6430   14.8000    7.3010 C.ar  288  PHE288     -0.0000
     88  N         36.6170   15.5280    7.2540 N.3   290  PHE290     -0.1241
     89  CA        37.3040   15.9530    8.4660 C.3   290  PHE290      0.1605
     90  C         38.7020   15.3130    8.4820 C.2   290  PHE290      0.2264
     91  O         38.8470   14.1600    8.0820 O.2   290  PHE290     -0.2867
     92  CB        36.4400   15.5790    9.6750 C.3   290  PHE290      0.0534
     93  CG        34.9490   15.8160    9.4520 C.ar  290  PHE290     -0.0203
     94  CD1       34.4200   17.1170    9.4400 C.ar  290  PHE290     -0.0042
     95  CD2       34.0870   14.7490    9.2270 C.ar  290  PHE290     -0.0042
     96  CE1       33.0390   17.3320    9.2140 C.ar  290  PHE290     -0.0003
     97  CE2       32.7160   14.9560    8.9920 C.ar  290  PHE290     -0.0003
     98  CZ        32.1890   16.2410    8.9970 C.ar  290  PHE290     -0.0000
     99  N         23.3640   22.7130    6.1640 N.3   330  TYR330     -0.1227
    100  CA        24.3190   23.2360    7.1340 C.3   330  TYR330      0.1736
    101  C         25.7490   23.2600    6.5360 C.2   330  TYR330      0.2595
    102  O         26.4960   24.2180    6.7010 O.2   330  TYR330     -0.2718
    103  CB        24.2550   22.3720    8.3930 C.3   330  TYR330      0.0548
    104  CG        24.8210   22.9790    9.6570 C.ar  330  TYR330     -0.0200
    105  CD1       24.2130   22.7510   10.8870 C.ar  330  TYR330     -0.0009
    106  CD2       25.9790   23.7780    9.6310 C.ar  330  TYR330     -0.0009
    107  CE1       24.7600   23.2800   12.0680 C.ar  330  TYR330      0.0417
    108  CE2       26.5070   24.3250   10.7810 C.ar  330  TYR330      0.0417
    109  CZ        25.8970   24.0810   11.9860 C.ar  330  TYR330      0.1957
    110  OH        26.4370   24.6250   13.1110 O.3   330  TYR330     -0.2866
    111  N         26.0970   22.2150    5.8030 N.am  331  PHE331     -0.1976
    112  CA        27.4640   22.0640    5.2870 C.3   331  PHE331      0.1639
    113  C         27.8090   23.0040    4.1270 C.2   331  PHE331      0.2290
    114  O         28.9830   23.3010    3.8810 O.2   331  PHE331     -0.2864
    115  CB        27.6940   20.5990    4.9390 C.3   331  PHE331      0.0560
    116  CG        27.6450   19.7240    6.1380 C.ar  331  PHE331     -0.0200
    117  CD1       26.4340   19.1400    6.5450 C.ar  331  PHE331     -0.0042
    118  CD2       28.7900   19.5290    6.9110 C.ar  331  PHE331     -0.0042
    119  CE1       26.3740   18.3590    7.6760 C.ar  331  PHE331     -0.0003
    120  CE2       28.7400   18.7400    8.0600 C.ar  331  PHE331     -0.0003
    121  CZ        27.5500   18.1550    8.4330 C.ar  331  PHE331     -0.0000
    122  N         29.6100   26.5280    4.7260 N.3   334  TYR334     -0.1241
    123  CA        31.0120   26.5300    5.1450 C.3   334  TYR334      0.1605
    124  C         32.0250   26.2430    4.0200 C.2   334  TYR334      0.2264
    125  O         33.1740   25.8530    4.2970 O.2   334  TYR334     -0.2867
    126  CB        31.2370   25.5000    6.2590 C.3   334  TYR334      0.0534
    127  CG        30.7520   25.9250    7.6190 C.ar  334  TYR334     -0.0201
    128  CD1       29.4810   25.5710    8.0680 C.ar  334  TYR334     -0.0009
    129  CD2       31.5720   26.6720    8.4660 C.ar  334  TYR334     -0.0009
    130  CE1       29.0380   25.9640    9.3170 C.ar  334  TYR334      0.0417
    131  CE2       31.1400   27.0600    9.7190 C.ar  334  TYR334      0.0417
    132  CZ        29.8730   26.7010   10.1380 C.ar  334  TYR334      0.1957
    133  OH        29.4410   27.0740   11.3970 O.3   334  TYR334     -0.2866
    134  N         21.0620   19.2810    9.9620 N.3   440  HIS440     -0.1241
    135  CA        21.8510   18.3220   10.6970 C.3   440  HIS440      0.1621
    136  C         22.0410   18.8360   12.1480 C.2   440  HIS440      0.2264
    137  O         22.4820   19.9860   12.3770 O.2   440  HIS440     -0.2867
    138  CB        23.1530   18.1910    9.9090 C.3   440  HIS440      0.0745
    139  CG        24.0600   17.0760   10.3270 C.ar  440  HIS440      0.0817
    140  ND1       23.7840   15.7430   10.0750 N.ar  440  HIS440     -0.2268
    141  CD2       25.3080   17.1090   10.8580 C.ar  440  HIS440      0.1154
    142  CE1       24.7980   15.0010   10.5020 C.ar  440  HIS440      0.1986
    143  NE2       25.7370   15.8080   10.9750 N.ar  440  HIS440     -0.2212
@<TRIPOS>BOND
     1   114   113    2
     2   124   125    2
     3   124   123    1
     4   113   112    1
     5    81    78    1
     6    81    82    1
     7    77    78    1
     8   122   123    1
     9    80    79    2
    10   115   112    1
    11   115   116    1
    12    79    78    1
    13   123   126    1
    14   112   111    1
    15    84    82   ar
    16    84    86   ar
    17    82    83   ar
    18   111   101   am
    19   116   117   ar
    20   116   118   ar
    21    99   100    1
    22    66    65    2
    23   126   127    1
    24    86    87   ar
    25    83    85   ar
    26   101   102    2
    27   101   100    1
    28   117   119   ar
    29   118   120   ar
    30   100   103    1
    31    71    69   ar
    32    71    72   ar
    33    69    68   ar
    34    88    89    1
    35    65    64    1
    36    87    85   ar
    37   127   128   ar
    38   127   129   ar
    39   119   121   ar
    40   120   121   ar
    41   128   130   ar
    42    91    90    2
    43    72    74   ar
    44    72    70   ar
    45    68    67    1
    46    68    70   ar
    47   103   104    1
    48   129   131   ar
    49    89    90    1
    50    89    92    1
    51    74    76   ar
    52    64    67    1
    53    64    63    1
    54    70    73   ar
    55    97    98   ar
    56    97    95   ar
    57    98    96   ar
    58    96    94   ar
    59    95    93   ar
    60   130   132   ar
    61    57    56    2
    62    94    93   ar
    63    93    92    1
    64    76    75   ar
    65   106   104   ar
    66   106   108   ar
    67   104   105   ar
    68   131   132   ar
    69    63    56   am
    70   138   139    1
    71   138   135    1
    72   134   135    1
    73    73    75   ar
    74   140   139   ar
    75   140   142   ar
    76    56    55    1
    77   132   133    1
    78   139   141   ar
    79   142   143   ar
    80   135   136    1
    81   108   109   ar
    82   141   143   ar
    83   105   107   ar
    84    55    54    1
    85    55    58    1
    86    12    11    1
    87   109   107   ar
    88   109   110    1
    89   136   137    2
    90    44    42   ar
    91    44    45   ar
    92    58    59    1
    93    19    18   ar
    94    46    45    1
    95    11     9   ar
    96    11    10   ar
    97    42    40   ar
    98    45    43   ar
    99    59    60    1
   100    20    18   ar
   101     9     7   ar
   102    10     8   ar
   103    18    17    1
   104    62    60   ar
   105    40    39    1
   106    40    41   ar
   107    50    49    2
   108    60    61   ar
   109    43    41   ar
   110     7     6   ar
   111     8     6   ar
   112    39    36    1
   113     6     5    1
   114    49    48    1
   115    17    14    1
   116    15    14    1
   117    15    16    2
   118    14    13    1
   119    35    36    1
   120    36    37    1
   121     5     2    1
   122    48    47    1
   123    48    51    1
   124    29    27   ar
   125    29    30   ar
   126    27    26   ar
   127    52    51    1
   128    32    30   ar
   129    32    34   ar
   130    37    38    2
   131    30    28   ar
   132     2     3    1
   133     2     1    1
   134    51    53    1
   135    26    28   ar
   136    26    25    1
   137    34    33   ar
   138    28    31   ar
   139     3     4    2
   140    25    22    1
   141    33    31   ar
   142    22    21    1
   143    22    23    1
   144    23    24    2
