@<TRIPOS>MOLECULE
tmp/2gz3A01.pdb
 114 105 0 0 0
SMALL
GASTEIGER

@<TRIPOS>ATOM
      1  N        -30.5740    8.2730    3.5210 N.3    98  ARG98      -0.1245
      2  CA       -29.1270    8.0700    3.3100 C.3    98  ARG98       0.1563
      3  C        -28.2560    8.1610    4.5610 C.2    98  ARG98       0.2260
      4  O        -27.2180    7.4780    4.6650 O.2    98  ARG98      -0.2867
      5  CB       -28.5930    9.0660    2.2760 C.3    98  ARG98       0.0307
      6  CG       -29.0820    8.8320    0.8600 C.3    98  ARG98       0.0489
      7  CD       -28.5470    9.8990   -0.0550 C.3    98  ARG98       0.2205
      8  NE       -29.1940    9.8920   -1.3610 N.pl3  98  ARG98      -0.0865
      9  CZ       -29.2380   10.9490   -2.1760 C.cat  98  ARG98       0.5346
     10  NH1      -28.6820   12.1020   -1.8010 N.pl3  98  ARG98       0.1354
     11  NH2      -29.8430   10.8580   -3.3660 N.pl3  98  ARG98       0.1354
     12  N        -26.8300    6.7590   -3.2760 N.3   125  PRO125     -0.2102
     13  CA       -26.3280    8.1020   -2.9680 C.3   125  PRO125      0.1504
     14  C        -26.6750    9.1420   -4.0200 C.2   125  PRO125      0.2576
     15  O        -27.1660    8.8310   -5.1060 O.2   125  PRO125     -0.2718
     16  CB       -24.7940    7.9280   -2.9180 C.3   125  PRO125      0.0282
     17  CG       -24.5480    6.4800   -2.9470 C.3   125  PRO125      0.0208
     18  CD       -25.7320    5.8110   -3.5380 C.3   125  PRO125      0.0893
     19  N        -26.4020   10.3790   -3.6540 N.am  126  ASN126     -0.1961
     20  CA       -26.4850   11.5200   -4.5130 C.3   126  ASN126      0.1819
     21  C        -25.6760   11.2580   -5.7910 C.2   126  ASN126      0.2621
     22  O        -24.5860   10.6670   -5.7310 O.2   126  ASN126     -0.2715
     23  CB       -25.9420   12.7150   -3.7140 C.3   126  ASN126      0.1195
     24  CG       -25.5440   13.8610   -4.5760 C.2   126  ASN126      0.2630
     25  OD1      -24.3480   14.1320   -4.7530 O.2   126  ASN126     -0.2716
     26  ND2      -26.5310   14.5530   -5.1260 N.am  126  ASN126     -0.0877
     27  N        -26.2190   11.6760   -6.9360 N.am  127  CYS127     -0.1968
     28  CA       -25.6110   11.3940   -8.2460 C.3   127  CYS127      0.1712
     29  C        -24.1950   11.9510   -8.4530 C.2   127  CYS127      0.2296
     30  O        -23.3150   11.2580   -8.9660 O.2   127  CYS127     -0.2864
     31  CB       -26.5520   11.8090   -9.3830 C.3   127  CYS127      0.0983
     32  SG       -27.0910   13.4680   -9.3030 S.3   127  CYS127     -0.0798
     33  N        -23.5310   20.7680  -13.1860 N.3   154  GLN154     -0.1245
     34  CA       -24.6700   19.8520  -13.1700 C.3   154  GLN154      0.1566
     35  C        -25.7610   20.1180  -14.2080 C.2   154  GLN154      0.2260
     36  O        -26.1140   21.2690  -14.4900 O.2   154  GLN154     -0.2867
     37  CB       -25.2370   19.7060  -11.7510 C.3   154  GLN154      0.0367
     38  CG       -24.3230   18.8740  -10.8570 C.3   154  GLN154      0.0905
     39  CD       -24.7390   18.8280   -9.4180 C.2   154  GLN154      0.2608
     40  OE1      -23.9840   19.2260   -8.5370 O.2   154  GLN154     -0.2717
     41  NE2      -25.9290   18.3140   -9.1550 N.am  154  GLN154     -0.0878
     42  N        -31.0780   16.3290  -13.5800 N.3   158  GLY158     -0.1210
     43  CA       -30.9690   16.1020  -12.1270 C.3   158  GLY158      0.1956
     44  C        -32.1340   16.6520  -11.2960 C.2   158  GLY158      0.2611
     45  O        -32.4510   16.1350  -10.2190 O.2   158  GLY158     -0.2717
     46  N        -32.7690   17.7100  -11.7850 N.am  159  ALA159     -0.1979
     47  CA       -33.8770   18.3320  -11.0730 C.3   159  ALA159      0.1597
     48  C        -35.2550   17.8850  -11.5840 C.2   159  ALA159      0.2287
     49  O        -36.2820   18.4330  -11.1860 O.2   159  ALA159     -0.2864
     50  CB       -33.7270   19.8570  -11.1060 C.3   159  ALA159      0.0319
     51  N        -27.9400   24.6030   -5.9780 N.3   208  ILE208     -0.1245
     52  CA       -28.6300   23.3560   -6.2120 C.3   208  ILE208      0.1561
     53  C        -29.1420   22.9770   -4.8440 C.2   208  ILE208      0.2260
     54  O        -28.3760   22.9460   -3.8820 O.2   208  ILE208     -0.2867
     55  CB       -27.6930   22.2610   -6.8230 C.3   208  ILE208      0.0252
     56  CG1      -27.1920   22.7150   -8.1990 C.3   208  ILE208      0.0019
     57  CG2      -28.4410   20.9180   -6.9450 C.3   208  ILE208      0.0019
     58  CD1      -26.4370   21.7040   -8.9980 C.3   208  ILE208      0.0001
     59  N        -27.1030   20.2570   -1.5750 N.3   219  GLU219     -0.1245
     60  CA       -26.4080   19.4560   -2.5880 C.3   219  GLU219      0.1567
     61  C        -24.9350   19.3330   -2.2320 C.2   219  GLU219      0.2260
     62  O        -24.3600   18.2440   -2.3260 O.2   219  GLU219     -0.2867
     63  CB       -26.6120   20.0380   -3.9970 C.3   219  GLU219      0.0388
     64  CG       -25.9200   19.2870   -5.1440 C.3   219  GLU219      0.1160
     65  CD       -26.7030   18.0690   -5.6610 C.2   219  GLU219      0.3649
     66  OE1      -27.7970   17.7740   -5.1290 O.co2 219  GLU219     -0.2457
     67  OE2      -26.2140   17.4030   -6.6180 O.co2 219  GLU219     -0.2457
     68  N        -24.4600   17.2090    0.9480 N.3   222  LYS222     -0.1245
     69  CA       -24.6330   15.8020    0.6090 C.3   222  LYS222      0.1561
     70  C        -23.3260   15.1990    0.1370 C.2   222  LYS222      0.2260
     71  O        -22.9330   14.1180    0.5660 O.2   222  LYS222     -0.2867
     72  CB       -25.6680   15.6540   -0.4920 C.3   222  LYS222      0.0271
     73  CG       -27.0700   15.9810   -0.0570 C.3   222  LYS222      0.0035
     74  CD       -27.9100   16.2510   -1.2830 C.3   222  LYS222      0.0206
     75  CE       -29.3610   16.4040   -0.9330 C.3   222  LYS222      0.1093
     76  NZ       -30.0880   16.5590   -2.2080 N.3   222  LYS222     -0.1314
     77  N        -25.5970   24.6050  -11.4150 N.3   244  ARG244     -0.1245
     78  CA       -26.4190   24.1180  -12.5110 C.3   244  ARG244      0.1563
     79  C        -26.0910   24.8870  -13.7840 C.2   244  ARG244      0.2260
     80  O        -26.0160   26.0990  -13.7410 O.2   244  ARG244     -0.2867
     81  CB       -27.9160   24.2700  -12.1700 C.3   244  ARG244      0.0307
     82  CG       -28.8480   23.4820  -13.0760 C.3   244  ARG244      0.0489
     83  CD       -28.8400   21.9920  -12.7100 C.3   244  ARG244      0.2205
     84  NE       -29.5090   21.7600  -11.4370 N.pl3 244  ARG244     -0.0865
     85  CZ       -29.6590   20.5730  -10.8580 C.cat 244  ARG244      0.5346
     86  NH1      -29.2010   19.4690  -11.4430 N.pl3 244  ARG244      0.1354
     87  NH2      -30.2960   20.4940   -9.6890 N.pl3 244  ARG244      0.1354
     88  N        -23.6720   14.9420  -15.5070 N.3   251  HIS251     -0.1241
     89  CA       -22.9600   15.8610  -14.6330 C.3   251  HIS251      0.1621
     90  C        -21.4450   15.7580  -14.8860 C.2   251  HIS251      0.2264
     91  O        -20.9340   14.6720  -15.1300 O.2   251  HIS251     -0.2867
     92  CB       -23.2680   15.5450  -13.1680 C.3   251  HIS251      0.0745
     93  CG       -24.6980   15.7870  -12.7550 C.ar  251  HIS251      0.0817
     94  ND1      -25.6310   16.4020  -13.5640 N.ar  251  HIS251     -0.2268
     95  CD2      -25.3400   15.5190  -11.5930 C.ar  251  HIS251      0.1154
     96  CE1      -26.7880   16.4850  -12.9270 C.ar  251  HIS251      0.1986
     97  NE2      -26.6360   15.9680  -11.7250 N.ar  251  HIS251     -0.2212
     98  N        -26.0500   11.2650  -14.9990 N.3   324  ASN324     -0.1240
     99  CA       -26.6970   11.4010  -13.7000 C.3   324  ASN324      0.1653
    100  C        -27.9710   10.5810  -13.5640 C.2   324  ASN324      0.2266
    101  O        -28.4240   10.2960  -12.4510 O.2   324  ASN324     -0.2867
    102  CB       -26.9900   12.8760  -13.4230 C.3   324  ASN324      0.1155
    103  CG       -27.8840   13.5270  -14.4910 C.2   324  ASN324      0.2627
    104  OD1      -27.4630   13.7490  -15.6370 O.2   324  ASN324     -0.2716
    105  ND2      -29.1050   13.8810  -14.1030 N.am  324  ASN324     -0.0877
    106  N        -25.6190    7.7180  -11.9780 N.3   328  GLY328     -0.1210
    107  CA       -26.0230    8.6340  -10.9020 C.3   328  GLY328      0.1956
    108  C        -27.3070    8.2960  -10.1460 C.2   328  GLY328      0.2611
    109  O        -27.5850    8.8730   -9.0870 O.2   328  GLY328     -0.2717
    110  N        -28.1000    7.3710  -10.6880 N.am  329  ALA329     -0.1979
    111  CA       -29.4310    7.0670  -10.1600 C.3   329  ALA329      0.1597
    112  C        -29.8970    5.6750  -10.5530 C.2   329  ALA329      0.2287
    113  O        -29.6740    4.7280   -9.8160 O.2   329  ALA329     -0.2864
    114  CB       -30.4470    8.0910  -10.6330 C.3   329  ALA329      0.0319
@<TRIPOS>BOND
     1   104   103    2
     2    88    89    1
     3    91    90    2
     4    98    99    1
     5    90    89    1
     6    89    92    1
     7   103   105   am
     8   103   102    1
     9    36    35    2
    10    35    34    1
    11    79    80    2
    12    79    78    1
    13    99   100    1
    14    99   102    1
    15    42    43    1
    16   100   101    2
    17    94    96   ar
    18    94    93   ar
    19    33    34    1
    20    34    37    1
    21    92    93    1
    22    82    83    1
    23    82    81    1
    24    96    97   ar
    25    93    95   ar
    26    83    84    1
    27    78    81    1
    28    78    77    1
    29    43    44    1
    30   106   107    1
    31    46    44   am
    32    46    47    1
    33    37    38    1
    34    97    95   ar
    35    48    49    2
    36    48    47    1
    37    86    85    1
    38    84    85    2
    39    44    45    2
    40    50    47    1
    41   107   108    1
    42    85    87    1
    43    38    39    1
    44   110   111    1
    45   110   108   am
    46   114   111    1
    47   112   111    1
    48   112   113    2
    49   108   109    2
    50    39    41   am
    51    39    40    2
    52    31    32    1
    53    31    28    1
    54    58    56    1
    55    30    29    2
    56    29    28    1
    57    28    27    1
    58    56    55    1
    59    57    55    1
    60    27    21   am
    61    55    52    1
    62    67    65   ar
    63    52    51    1
    64    52    53    1
    65    21    22    2
    66    21    20    1
    67    65    64    1
    68    65    66   ar
    69    64    63    1
    70    26    24   am
    71    15    14    2
    72    53    54    2
    73    25    24    2
    74    24    23    1
    75    20    23    1
    76    20    19    1
    77    14    19   am
    78    14    13    1
    79    63    60    1
    80    18    12    1
    81    18    17    1
    82    11     9    1
    83    12    13    1
    84    13    16    1
    85    17    16    1
    86    60    61    1
    87    60    59    1
    88    62    61    2
    89    76    75    1
    90     9    10    1
    91     9     8    2
    92     8     7    1
    93    74    75    1
    94    74    73    1
    95    72    73    1
    96    72    69    1
    97     7     6    1
    98    70    71    2
    99    70    69    1
   100    69    68    1
   101     6     5    1
   102     5     2    1
   103     2     1    1
   104     2     3    1
   105     3     4    2
