@<TRIPOS>MOLECULE
tmp/2gz7A00.pdb
 133 128 0 0 0
SMALL
GASTEIGER

@<TRIPOS>ATOM
      1  N        -21.3450  -52.0840    0.3960 N.3    27  LEU27      -0.1245
      2  CA       -20.2430  -51.2800    0.9210 C.3    27  LEU27       0.1561
      3  C        -19.0750  -52.2050    1.2810 C.2    27  LEU27       0.2260
      4  O        -19.1110  -53.4020    1.0150 O.2    27  LEU27      -0.2867
      5  CB       -20.6580  -50.4270    2.1140 C.3    27  LEU27       0.0270
      6  CG       -21.5810  -50.9840    3.1960 C.3    27  LEU27       0.0019
      7  CD1      -20.8320  -51.3360    4.4810 C.3    27  LEU27       0.0001
      8  CD2      -22.6720  -49.9620    3.4690 C.3    27  LEU27       0.0001
      9  N        -20.0310  -50.9840    8.5040 N.3    39  PRO39      -0.2116
     10  CA       -21.0220  -50.0450    9.0530 C.3    39  PRO39       0.1372
     11  C        -22.4120  -50.6750    9.1150 C.2    39  PRO39       0.2244
     12  O        -22.8410  -51.3330    8.1670 O.2    39  PRO39      -0.2868
     13  CB       -21.0090  -48.8930    8.0470 C.3    39  PRO39       0.0268
     14  CG       -19.6530  -48.9860    7.3970 C.3    39  PRO39       0.0207
     15  CD       -19.4080  -50.4690    7.2650 C.3    39  PRO39       0.0892
     16  N        -25.1240  -49.2710    8.8050 N.3    41  HIS41      -0.1241
     17  CA       -25.9780  -48.6430    7.7980 C.3    41  HIS41       0.1621
     18  C        -26.2410  -49.5380    6.5910 C.2    41  HIS41       0.2264
     19  O        -27.1560  -49.2660    5.8110 O.2    41  HIS41      -0.2867
     20  CB       -25.3730  -47.3150    7.3190 C.3    41  HIS41       0.0745
     21  CG       -26.3730  -46.3980    6.6770 C.ar   41  HIS41       0.0817
     22  ND1      -26.6710  -46.4260    5.3300 N.ar   41  HIS41      -0.2268
     23  CD2      -27.1520  -45.4210    7.2070 C.ar   41  HIS41       0.1154
     24  CE1      -27.5800  -45.5100    5.0550 C.ar   41  HIS41       0.1986
     25  NE2      -27.8920  -44.8870    6.1830 N.ar   41  HIS41      -0.2212
     26  N        -33.2560  -44.2340    6.1740 N.3    49  MET49      -0.1245
     27  CA       -32.1290  -43.4240    6.6310 C.3    49  MET49       0.1570
     28  C        -32.4610  -42.1950    7.4710 C.2    49  MET49       0.2261
     29  O        -31.5640  -41.6270    8.1060 O.2    49  MET49      -0.2867
     30  CB       -31.3200  -42.9830    5.3930 C.3    49  MET49       0.0387
     31  CG       -30.8100  -44.1780    4.5770 C.3    49  MET49       0.0595
     32  SD       -31.0450  -43.8400    2.8340 S.3    49  MET49      -0.1393
     33  CE       -31.8860  -42.3120    3.1240 C.3    49  MET49       0.0692
     34  N        -19.3540  -41.9570   -3.2790 N.3   142  ASN142     -0.1240
     35  CA       -20.3600  -42.9610   -2.9300 C.3   142  ASN142      0.1653
     36  C        -19.7530  -44.3590   -2.9770 C.2   142  ASN142      0.2266
     37  O        -19.0210  -44.6980   -3.9090 O.2   142  ASN142     -0.2867
     38  CB       -21.5750  -42.8880   -3.8570 C.3   142  ASN142      0.1155
     39  CG       -22.3190  -41.5700   -3.7570 C.2   142  ASN142      0.2627
     40  OD1      -22.7490  -41.0130   -4.7720 O.2   142  ASN142     -0.2716
     41  ND2      -22.4740  -41.0560   -2.5420 N.am  142  ASN142     -0.0877
     42  N        -17.8950  -46.0650    2.0040 N.3   145  CYS145     -0.1235
     43  CA       -17.9850  -46.3800    3.3850 C.3   145  CYS145      0.1677
     44  C        -17.7460  -47.9310    3.8770 C.2   145  CYS145      0.2270
     45  O        -18.5270  -48.8510    3.6090 O.2   145  CYS145     -0.2867
     46  CB       -19.3190  -45.8070    3.8790 C.3   145  CYS145      0.0956
     47  SG       -19.1890  -44.0090    3.7980 S.3   145  CYS145     -0.0801
     48  N        -17.9700  -43.7350    7.5760 N.3   164  HIS164     -0.1226
     49  CA       -19.4290  -43.8480    7.5650 C.3   164  HIS164      0.1752
     50  C        -20.1530  -42.7540    6.8040 C.2   164  HIS164      0.2596
     51  O        -21.2040  -42.9620    6.2110 O.2   164  HIS164     -0.2718
     52  CB       -20.0160  -43.8260    8.9920 C.3   164  HIS164      0.0759
     53  CG       -19.7560  -45.0420    9.8150 C.ar  164  HIS164      0.0818
     54  ND1      -20.7780  -45.8540   10.2770 N.ar  164  HIS164     -0.2268
     55  CD2      -18.6120  -45.5840   10.2950 C.ar  164  HIS164      0.1154
     56  CE1      -20.2680  -46.8440   10.9810 C.ar  164  HIS164      0.1986
     57  NE2      -18.9520  -46.7070   11.0100 N.ar  164  HIS164     -0.2212
     58  N        -19.7080  -41.4880    6.8660 N.am  165  MET165     -0.1965
     59  CA       -20.5210  -40.4260    6.2760 C.3   165  MET165      0.1736
     60  C        -19.7100  -39.2280    5.7870 C.2   165  MET165      0.2616
     61  O        -18.6160  -38.9630    6.2770 O.2   165  MET165     -0.2715
     62  CB       -21.5310  -39.8050    7.2610 C.3   165  MET165      0.0427
     63  CG       -22.0000  -40.6010    8.4510 C.3   165  MET165      0.0599
     64  SD       -22.3150  -39.5920    9.9060 S.3   165  MET165     -0.1393
     65  CE       -21.1590  -38.2460    9.6830 C.3   165  MET165      0.0692
     66  N        -20.3260  -38.4900    4.8700 N.am  166  GLU166     -0.1963
     67  CA       -19.8660  -37.1740    4.4630 C.3   166  GLU166      0.1733
     68  C        -20.7980  -36.1040    5.0440 C.2   166  GLU166      0.2616
     69  O        -22.0120  -36.2250    4.8930 O.2   166  GLU166     -0.2715
     70  CB       -19.8030  -37.0260    2.9410 C.3   166  GLU166      0.0429
     71  CG       -19.2600  -35.6780    2.4770 C.3   166  GLU166      0.1163
     72  CD       -18.8480  -35.6330    1.0180 C.2   166  GLU166      0.3649
     73  OE1      -17.8960  -36.3590    0.6280 O.co2 166  GLU166     -0.2457
     74  OE2      -19.4630  -34.8530    0.2510 O.co2 166  GLU166     -0.2457
     75  N        -20.2080  -35.1030    5.6750 N.am  167  LEU167     -0.1964
     76  CA       -20.9340  -33.9770    6.2490 C.3   167  LEU167      0.1713
     77  C        -21.1660  -32.8940    5.2160 C.2   167  LEU167      0.2458
     78  O        -20.5590  -32.9350    4.1390 O.2   167  LEU167     -0.2730
     79  CB       -20.1460  -33.4700    7.4640 C.3   167  LEU167      0.0310
     80  CG       -20.1650  -34.4410    8.6520 C.3   167  LEU167      0.0022
     81  CD1      -19.1180  -34.0730    9.6880 C.3   167  LEU167      0.0001
     82  CD2      -21.5510  -34.4840    9.2830 C.3   167  LEU167      0.0001
     83  N        -22.0600  -31.9410    5.4800 N.am  168  PRO168     -0.2727
     84  CA       -22.4060  -30.9260    4.4810 C.3   168  PRO168      0.1402
     85  C        -21.2370  -30.1160    3.9390 C.2   168  PRO168      0.2269
     86  O        -21.3140  -29.6050    2.8110 O.2   168  PRO168     -0.2865
     87  CB       -23.3620  -29.9970    5.2470 C.3   168  PRO168      0.0296
     88  CG       -23.9920  -30.9000    6.2560 C.3   168  PRO168      0.0237
     89  CD       -22.8570  -31.7880    6.7140 C.3   168  PRO168      0.0939
     90  N        -25.2350  -42.0890   12.8020 N.3   187  ASP187     -0.1225
     91  CA       -25.3960  -42.6750   11.4780 C.3   187  ASP187      0.1805
     92  C        -26.8610  -42.6680   11.0570 C.2   187  ASP187      0.2598
     93  O        -27.4920  -43.7140   10.9290 O.2   187  ASP187     -0.2718
     94  CB       -24.8150  -44.0860   11.3840 C.3   187  ASP187      0.1424
     95  CG       -25.2760  -45.0530   12.4500 C.2   187  ASP187      0.3668
     96  OD1      -25.9420  -44.6150   13.4120 O.co2 187  ASP187     -0.2456
     97  OD2      -24.9490  -46.2530   12.3340 O.co2 187  ASP187     -0.2456
     98  N        -27.3670  -41.4660   10.8480 N.am  188  ARG188     -0.1966
     99  CA       -28.7020  -41.2550   10.2940 C.3   188  ARG188      0.1729
    100  C        -28.7470  -39.8610    9.6730 C.2   188  ARG188      0.2616
    101  O        -27.9390  -38.9830   10.0020 O.2   188  ARG188     -0.2715
    102  CB       -29.7950  -41.4670   11.3440 C.3   188  ARG188      0.0348
    103  CG       -30.0490  -40.3430   12.3270 C.3   188  ARG188      0.0492
    104  CD       -30.2370  -40.7790   13.7770 C.3   188  ARG188      0.2205
    105  NE       -30.8170  -42.0930   13.9880 N.pl3 188  ARG188     -0.0865
    106  CZ       -30.1940  -43.2440   14.2370 C.cat 188  ARG188      0.5346
    107  NH1      -28.8640  -43.3340   14.3220 N.pl3 188  ARG188      0.1354
    108  NH2      -30.9070  -44.3600   14.4060 N.pl3 188  ARG188      0.1354
    109  N        -29.6840  -39.6550    8.7570 N.am  189  GLN189     -0.1963
    110  CA       -29.7670  -38.3640    8.0700 C.3   189  GLN189      0.1733
    111  C        -30.3680  -37.3010    8.9820 C.2   189  GLN189      0.2617
    112  O        -31.5720  -37.3250    9.2640 O.2   189  GLN189     -0.2715
    113  CB       -30.5880  -38.5250    6.7940 C.3   189  GLN189      0.0408
    114  CG       -30.0930  -37.7350    5.5940 C.3   189  GLN189      0.0908
    115  CD       -30.2180  -38.5710    4.3270 C.2   189  GLN189      0.2608
    116  OE1      -29.3330  -39.3820    4.0360 O.2   189  GLN189     -0.2717
    117  NE2      -31.3090  -38.3900    3.5900 N.am  189  GLN189     -0.0878
    118  N        -29.5380  -36.3790    9.4660 N.am  190  THR190     -0.1951
    119  CA       -30.0110  -35.2640   10.2830 C.3   190  THR190      0.1897
    120  C        -29.3770  -33.9560    9.8010 C.2   190  THR190      0.2313
    121  O        -28.7670  -33.9210    8.7260 O.2   190  THR190     -0.2863
    122  CB       -29.7120  -35.4560   11.7820 C.3   190  THR190      0.1794
    123  OG1      -28.3350  -35.1370   12.0490 O.3   190  THR190     -0.2208
    124  CG2      -29.9230  -36.9010   12.2160 C.3   190  THR190      0.0378
    125  N        -26.9380  -32.5830   11.2650 N.3   192  GLN192     -0.1245
    126  CA       -25.6080  -32.5170   11.8590 C.3   192  GLN192      0.1566
    127  C        -24.5850  -31.8760   10.9270 C.2   192  GLN192      0.2260
    128  O        -24.5690  -32.0890    9.7160 O.2   192  GLN192     -0.2867
    129  CB       -25.1430  -33.9150   12.2660 C.3   192  GLN192      0.0367
    130  CG       -25.2800  -34.9410   11.1620 C.3   192  GLN192      0.0905
    131  CD       -25.0250  -36.3360   11.7010 C.2   192  GLN192      0.2608
    132  OE1      -24.3590  -36.4710   12.7270 O.2   192  GLN192     -0.2717
    133  NE2      -25.5620  -37.3390   11.0080 N.am  192  GLN192     -0.0878
@<TRIPOS>BOND
     1    40    39    2
     2    37    36    2
     3    38    39    1
     4    38    35    1
     5    39    41   am
     6    34    35    1
     7    36    35    1
     8    74    72   ar
     9     1     2    1
    10    73    72   ar
    11     2     3    1
    12     2     5    1
    13     4     3    2
    14    72    71    1
    15    42    43    1
    16     5     6    1
    17    71    70    1
    18    86    85    2
    19    32    33    1
    20    32    31    1
    21    70    67    1
    22     6     8    1
    23     6     7    1
    24    43    44    1
    25    43    46    1
    26   117   115   am
    27    45    44    2
    28    47    46    1
    29    85    84    1
    30   116   115    2
    31    78    77    2
    32   115   114    1
    33    67    66    1
    34    67    68    1
    35    84    87    1
    36    84    83    1
    37    31    30    1
    38    66    60   am
    39    69    68    2
    40    68    75   am
    41    24    22   ar
    42    24    25   ar
    43    77    83   am
    44    77    76    1
    45    87    88    1
    46    22    21   ar
    47    30    27    1
    48    83    89    1
    49   114   113    1
    50    75    76    1
    51    60    59    1
    52    60    61    2
    53    19    18    2
    54    26    27    1
    55    25    23   ar
    56    51    50    2
    57    76    79    1
    58    88    89    1
    59    59    58    1
    60    59    62    1
    61    18    17    1
    62    27    28    1
    63    21    23   ar
    64    21    20    1
    65   113   110    1
    66    50    58   am
    67    50    49    1
    68    62    63    1
    69    15    14    1
    70    15     9    1
    71    20    17    1
    72    14    13    1
    73    79    80    1
    74    28    29    2
    75    49    48    1
    76    49    52    1
    77    17    16    1
    78    13    10    1
    79   110   109    1
    80   110   111    1
    81    12    11    2
    82    63    64    1
    83     9    10    1
    84    80    82    1
    85    80    81    1
    86   121   120    2
    87   109   100   am
    88   111   112    2
    89   111   118   am
    90    52    53    1
    91    10    11    1
    92   118   119    1
    93   100   101    2
    94   100    99    1
    95    65    64    1
    96   128   127    2
    97   120   119    1
    98    53    54   ar
    99    53    55   ar
   100    54    56   ar
   101   119   122    1
   102    99    98    1
   103    99   102    1
   104    55    57   ar
   105    98    92   am
   106   127   126    1
   107    93    92    2
   108    56    57   ar
   109   133   131   am
   110    92    91    1
   111   130   131    1
   112   130   129    1
   113   125   126    1
   114   102   103    1
   115    94    91    1
   116    94    95    1
   117    91    90    1
   118   131   132    2
   119   122   123    1
   120   122   124    1
   121   126   129    1
   122   103   104    1
   123    97    95   ar
   124    95    96   ar
   125   104   105    1
   126   105   106    2
   127   106   107    1
   128   106   108    1
