@<TRIPOS>MOLECULE
tmp/2gz8A00.pdb
 153 150 0 0 0
SMALL
GASTEIGER

@<TRIPOS>ATOM
      1  N        -27.9780  -52.4290   -0.8430 N.3    25  THR25      -0.1203
      2  CA       -26.8380  -51.6420   -0.3690 C.3    25  THR25       0.1994
      3  C        -25.5680  -52.4830   -0.3600 C.2    25  THR25       0.2619
      4  O        -25.5270  -53.5860    0.1840 O.2    25  THR25      -0.2717
      5  CB       -27.0960  -51.0980    1.0580 C.3    25  THR25       0.1784
      6  OG1      -28.2810  -50.2900    1.0650 O.3    25  THR25      -0.2211
      7  CG2      -25.9270  -50.2320    1.5280 C.3    25  THR25       0.0376
      8  N        -24.5170  -51.9690   -0.9900 N.am   26  THR26      -0.1938
      9  CA       -23.2000  -52.5830   -0.9180 C.3    26  THR26       0.2028
     10  C        -22.1990  -51.5560   -0.3740 C.2    26  THR26       0.2642
     11  O        -22.2730  -50.3740   -0.7080 O.2    26  THR26      -0.2714
     12  CB       -22.7090  -53.1030   -2.2810 C.3    26  THR26       0.1808
     13  OG1      -23.5870  -54.1380   -2.7480 O.3    26  THR26      -0.2208
     14  CG2      -21.3340  -53.7290   -2.1520 C.3    26  THR26       0.0379
     15  N        -21.2980  -52.0340    0.4760 N.am   27  LEU27      -0.1977
     16  CA       -20.1830  -51.2480    1.0000 C.3    27  LEU27       0.1596
     17  C        -19.0400  -52.1980    1.3670 C.2    27  LEU27       0.2287
     18  O        -19.1340  -53.4050    1.1540 O.2    27  LEU27      -0.2864
     19  CB       -20.5900  -50.3750    2.1870 C.3    27  LEU27       0.0297
     20  CG       -21.5070  -50.8870    3.3030 C.3    27  LEU27       0.0022
     21  CD1      -20.8340  -51.9660    4.1510 C.3    27  LEU27       0.0001
     22  CD2      -21.9660  -49.7460    4.1850 C.3    27  LEU27       0.0001
     23  N        -25.1230  -49.3530    8.9830 N.3    41  HIS41      -0.1241
     24  CA       -26.0830  -48.7440    8.0570 C.3    41  HIS41       0.1621
     25  C        -26.1910  -49.4660    6.7130 C.2    41  HIS41       0.2264
     26  O        -27.0000  -49.0800    5.8680 O.2    41  HIS41      -0.2867
     27  CB       -25.8660  -47.2320    7.9130 C.3    41  HIS41       0.0745
     28  CG       -24.7020  -46.7560    7.1070 C.ar   41  HIS41       0.0817
     29  ND1      -24.5750  -46.9650    5.7510 N.ar   41  HIS41      -0.2268
     30  CD2      -23.6240  -46.0160    7.4680 C.ar   41  HIS41       0.1154
     31  CE1      -23.4570  -46.4070    5.3140 C.ar   41  HIS41       0.1986
     32  NE2      -22.8590  -45.8200    6.3410 N.ar   41  HIS41      -0.2212
     33  N        -13.4350  -39.2440   -0.5780 N.3   140  PHE140     -0.1227
     34  CA       -14.3840  -40.3610   -0.6090 C.3   140  PHE140      0.1736
     35  C        -15.5570  -40.0870   -1.5510 C.2   140  PHE140      0.2595
     36  O        -16.0770  -38.9690   -1.5960 O.2   140  PHE140     -0.2718
     37  CB       -14.9720  -40.6370    0.7780 C.3   140  PHE140      0.0547
     38  CG       -14.0070  -41.1560    1.8230 C.ar  140  PHE140     -0.0202
     39  CD1      -13.6140  -40.3440    2.8830 C.ar  140  PHE140     -0.0042
     40  CD2      -13.5160  -42.4560    1.7740 C.ar  140  PHE140     -0.0042
     41  CE1      -12.7480  -40.8090    3.8610 C.ar  140  PHE140     -0.0003
     42  CE2      -12.6380  -42.9220    2.7460 C.ar  140  PHE140     -0.0003
     43  CZ       -12.2500  -42.0940    3.7890 C.ar  140  PHE140     -0.0000
     44  N        -15.9770  -41.1050   -2.2910 N.am  141  LEU141     -0.1966
     45  CA       -17.1640  -41.0280   -3.1410 C.3   141  LEU141      0.1728
     46  C        -18.1790  -42.0600   -2.6570 C.2   141  LEU141      0.2616
     47  O        -17.8480  -42.8600   -1.7820 O.2   141  LEU141     -0.2715
     48  CB       -16.8310  -41.2780   -4.6150 C.3   141  LEU141      0.0311
     49  CG       -15.8010  -40.3740   -5.2950 C.3   141  LEU141      0.0022
     50  CD1      -15.4850  -40.8920   -6.6870 C.3   141  LEU141      0.0001
     51  CD2      -16.2920  -38.9330   -5.3590 C.3   141  LEU141      0.0001
     52  N        -19.3900  -42.0370   -3.2180 N.am  142  ASN142     -0.1958
     53  CA       -20.3800  -43.0690   -2.9130 C.3   142  ASN142      0.1819
     54  C        -19.7570  -44.4510   -3.0260 C.2   142  ASN142      0.2622
     55  O        -19.0720  -44.7560   -4.0060 O.2   142  ASN142     -0.2715
     56  CB       -21.5800  -42.9930   -3.8610 C.3   142  ASN142      0.1195
     57  CG       -22.4110  -41.7350   -3.6720 C.2   142  ASN142      0.2630
     58  OD1      -23.1400  -41.3340   -4.5840 O.2   142  ASN142     -0.2716
     59  ND2      -22.3130  -41.1050   -2.5050 N.am  142  ASN142     -0.0877
     60  N        -19.9960  -45.2870   -2.0240 N.am  143  GLY143     -0.1940
     61  CA       -19.4880  -46.6480   -2.0150 C.3   143  GLY143      0.2014
     62  C        -18.2310  -46.8330   -1.1850 C.2   143  GLY143      0.2640
     63  O        -17.7160  -47.9420   -1.0780 O.2   143  GLY143     -0.2714
     64  N        -17.7250  -45.7540   -0.6000 N.am  144  SER144     -0.1935
     65  CA       -16.4950  -45.8110    0.1910 C.3   144  SER144      0.2055
     66  C        -16.7150  -46.1670    1.6640 C.2   144  SER144      0.2643
     67  O        -15.7400  -46.4090    2.3890 O.2   144  SER144     -0.2714
     68  CB       -15.7490  -44.4810    0.0810 C.3   144  SER144      0.2130
     69  OG       -16.5480  -43.3850    0.4840 O.3   144  SER144     -0.2179
     70  N        -17.9720  -46.2190    2.1220 N.am  145  CYS145     -0.1967
     71  CA       -18.2150  -46.5770    3.5240 C.3   145  CYS145      0.1712
     72  C        -17.5820  -47.9210    3.8310 C.2   145  CYS145      0.2296
     73  O        -17.5740  -48.8070    2.9830 O.2   145  CYS145     -0.2864
     74  CB       -19.7010  -46.6070    3.8500 C.3   145  CYS145      0.0983
     75  SG       -20.4090  -44.9730    4.0960 S.3   145  CYS145     -0.0798
     76  N        -14.9030  -45.6370    7.8530 N.3   163  HIS163     -0.1241
     77  CA       -15.6630  -44.5440    7.2810 C.3   163  HIS163      0.1621
     78  C        -17.1700  -44.8190    7.2460 C.2   163  HIS163      0.2264
     79  O        -17.5650  -45.8900    6.8000 O.2   163  HIS163     -0.2867
     80  CB       -15.1490  -44.2540    5.8700 C.3   163  HIS163      0.0745
     81  CG       -15.8360  -43.0890    5.2450 C.ar  163  HIS163      0.0817
     82  ND1      -15.8760  -41.8490    5.8380 N.ar  163  HIS163     -0.2268
     83  CD2      -16.5200  -42.9790    4.0880 C.ar  163  HIS163      0.1154
     84  CE1      -16.5640  -41.0220    5.0770 C.ar  163  HIS163      0.1986
     85  NE2      -16.9620  -41.6830    4.0070 N.ar  163  HIS163     -0.2212
     86  N        -19.6950  -41.6710    6.8940 N.3   165  MET165     -0.1230
     87  CA       -20.4690  -40.6340    6.2190 C.3   165  MET165      0.1702
     88  C        -19.7060  -39.3840    5.8320 C.2   165  MET165      0.2592
     89  O        -18.6170  -39.1070    6.3350 O.2   165  MET165     -0.2718
     90  CB       -21.6320  -40.1860    7.1120 C.3   165  MET165      0.0401
     91  CG       -21.2820  -40.1940    8.5880 C.3   165  MET165      0.0596
     92  SD       -22.6010  -39.5640    9.6290 S.3   165  MET165     -0.1393
     93  CE       -22.7790  -37.9060    8.9800 C.3   165  MET165      0.0692
     94  N        -20.3450  -38.6140    4.9570 N.am  166  GLU166     -0.1966
     95  CA       -19.8590  -37.3120    4.5550 C.3   166  GLU166      0.1733
     96  C        -20.7510  -36.2280    5.1450 C.2   166  GLU166      0.2616
     97  O        -21.9740  -36.3610    5.1040 O.2   166  GLU166     -0.2715
     98  CB       -19.8440  -37.2000    3.0320 C.3   166  GLU166      0.0429
     99  CG       -19.3860  -35.8390    2.5320 C.3   166  GLU166      0.1163
    100  CD       -19.1950  -35.8030    1.0280 C.2   166  GLU166      0.3649
    101  OE1      -18.4100  -36.6260    0.4920 O.co2 166  GLU166     -0.2457
    102  OE2      -19.8230  -34.9370    0.3780 O.co2 166  GLU166     -0.2457
    103  N        -20.1550  -35.1680    5.6770 N.am  167  LEU167     -0.1964
    104  CA       -20.9130  -34.0680    6.2560 C.3   167  LEU167      0.1713
    105  C        -21.1160  -32.9710    5.2220 C.2   167  LEU167      0.2458
    106  O        -20.4780  -32.9880    4.1650 O.2   167  LEU167     -0.2730
    107  CB       -20.1990  -33.5460    7.5080 C.3   167  LEU167      0.0310
    108  CG       -20.0540  -34.5420    8.6620 C.3   167  LEU167      0.0022
    109  CD1      -19.0550  -34.0350    9.6880 C.3   167  LEU167      0.0001
    110  CD2      -21.4020  -34.8260    9.3130 C.3   167  LEU167      0.0001
    111  N        -22.0140  -32.0140    5.4750 N.am  168  PRO168     -0.2727
    112  CA       -22.3160  -30.9810    4.4780 C.3   168  PRO168      0.1402
    113  C        -21.1300  -30.2170    3.8920 C.2   168  PRO168      0.2269
    114  O        -21.2020  -29.7910    2.7260 O.2   168  PRO168     -0.2865
    115  CB       -23.2070  -30.0060    5.2650 C.3   168  PRO168      0.0296
    116  CG       -23.8920  -30.8750    6.2600 C.3   168  PRO168      0.0237
    117  CD       -22.8420  -31.8630    6.6900 C.3   168  PRO168      0.0939
    118  N        -27.3140  -41.5430   10.9770 N.3   188  ARG188     -0.1231
    119  CA       -28.6310  -41.2480   10.4400 C.3   188  ARG188      0.1694
    120  C        -28.5680  -39.9030    9.7240 C.2   188  ARG188      0.2592
    121  O        -27.7560  -39.0420   10.0820 O.2   188  ARG188     -0.2718
    122  CB       -29.6860  -41.2180   11.5550 C.3   188  ARG188      0.0321
    123  CG       -29.1960  -40.5980   12.8600 C.3   188  ARG188      0.0489
    124  CD       -30.2290  -40.6600   13.9920 C.3   188  ARG188      0.2205
    125  NE       -30.8300  -41.9750   14.1860 N.pl3 188  ARG188     -0.0865
    126  CZ       -30.1940  -43.1100   14.4700 C.cat 188  ARG188      0.5346
    127  NH1      -28.8660  -43.1580   14.5890 N.pl3 188  ARG188      0.1354
    128  NH2      -30.9000  -44.2280   14.6220 N.pl3 188  ARG188      0.1354
    129  N        -29.4090  -39.6990    8.7150 N.am  189  GLN189     -0.1966
    130  CA       -29.3920  -38.4280    7.9940 C.3   189  GLN189      0.1733
    131  C        -30.1390  -37.3300    8.7430 C.2   189  GLN189      0.2617
    132  O        -31.3660  -37.2810    8.6820 O.2   189  GLN189     -0.2715
    133  CB       -29.9740  -38.5910    6.5890 C.3   189  GLN189      0.0408
    134  CG       -28.9020  -38.8130    5.5240 C.3   189  GLN189      0.0908
    135  CD       -29.4500  -39.6000    4.3430 C.2   189  GLN189      0.2608
    136  OE1      -28.9870  -40.7050    4.0480 O.2   189  GLN189     -0.2717
    137  NE2      -30.4540  -39.0260    3.6800 N.am  189  GLN189     -0.0878
    138  N        -29.3820  -36.4840    9.4360 N.am  190  THR190     -0.1951
    139  CA       -29.8870  -35.3550   10.2110 C.3   190  THR190      0.1897
    140  C        -29.2580  -34.0390    9.7420 C.2   190  THR190      0.2313
    141  O        -28.6410  -33.9920    8.6760 O.2   190  THR190     -0.2863
    142  CB       -29.5960  -35.5170   11.7220 C.3   190  THR190      0.1794
    143  OG1      -28.2270  -35.1610   11.9780 O.3   190  THR190     -0.2208
    144  CG2      -29.7960  -36.9510   12.1780 C.3   190  THR190      0.0378
    145  N        -26.8580  -32.5870   11.2780 N.3   192  GLN192     -0.1245
    146  CA       -25.5310  -32.5480   11.8890 C.3   192  GLN192      0.1566
    147  C        -24.4660  -31.9640   10.9690 C.2   192  GLN192      0.2260
    148  O        -24.4280  -32.2390    9.7670 O.2   192  GLN192     -0.2867
    149  CB       -25.1380  -33.9510   12.3430 C.3   192  GLN192      0.0367
    150  CG       -25.2060  -34.9920   11.2440 C.3   192  GLN192      0.0905
    151  CD       -24.9200  -36.3750   11.7820 C.2   192  GLN192      0.2608
    152  OE1      -24.4080  -36.5210   12.8860 O.2   192  GLN192     -0.2717
    153  NE2      -25.2640  -37.4030   11.0040 N.am  192  GLN192     -0.0878
@<TRIPOS>BOND
     1    50    49    1
     2    51    49    1
     3    49    48    1
     4    48    45    1
     5    58    57    2
     6    55    54    2
     7    56    57    1
     8    56    53    1
     9    57    59   am
    10    52    53    1
    11    52    46   am
    12    45    46    1
    13    45    44    1
    14    54    53    1
    15    54    60   am
    16    13    12    1
    17    46    47    2
    18    44    35   am
    19    12    14    1
    20    12     9    1
    21    60    61    1
    22    61    62    1
    23    36    35    2
    24    35    34    1
    25    62    63    2
    26    62    64   am
    27     8     9    1
    28     8     3   am
    29     9    10    1
    30     1     2    1
    31    11    10    2
    32    34    33    1
    33    34    37    1
    34    64    65    1
    35    10    15   am
    36     2     3    1
    37     2     5    1
    38     3     4    2
    39    68    65    1
    40    68    69    1
    41    65    66    1
    42   102   100   ar
    43    15    16    1
    44   101   100   ar
    45    37    38    1
    46    16    17    1
    47    16    19    1
    48   100    99    1
    49     5     6    1
    50     5     7    1
    51    18    17    2
    52    66    70   am
    53    66    67    2
    54    40    38   ar
    55    40    42   ar
    56    38    39   ar
    57    70    71    1
    58    19    20    1
    59    99    98    1
    60   114   113    2
    61    42    43   ar
    62    39    41   ar
    63    73    72    2
    64    98    95    1
    65    20    21    1
    66    20    22    1
    67    71    72    1
    68    71    74    1
    69   137   135   am
    70    43    41   ar
    71    74    75    1
    72   113   112    1
    73    85    83   ar
    74    85    84   ar
    75   136   135    2
    76    83    81   ar
    77   106   105    2
    78   135   134    1
    79   112   115    1
    80   112   111    1
    81    95    94    1
    82    95    96    1
    83    94    88   am
    84    84    82   ar
    85    97    96    2
    86    96   103   am
    87   105   111   am
    88   105   104    1
    89    81    82   ar
    90    81    80    1
    91   115   116    1
    92    31    29   ar
    93    31    32   ar
    94   111   117    1
    95   134   133    1
    96   103   104    1
    97    29    28   ar
    98    88    87    1
    99    88    89    2
   100    26    25    2
   101    80    77    1
   102    87    86    1
   103    87    90    1
   104   104   107    1
   105   116   117    1
   106    32    30   ar
   107   133   130    1
   108    25    24    1
   109    79    78    2
   110    28    30   ar
   111    28    27    1
   112    90    91    1
   113    78    77    1
   114    77    76    1
   115   107   108    1
   116    27    24    1
   117   130   129    1
   118   130   131    1
   119    24    23    1
   120    91    92    1
   121   108   110    1
   122   108   109    1
   123   141   140    2
   124   132   131    2
   125   129   120   am
   126   131   138   am
   127    93    92    1
   128   138   139    1
   129   120   121    2
   130   120   119    1
   131   140   139    1
   132   148   147    2
   133   139   142    1
   134   119   118    1
   135   119   122    1
   136   147   146    1
   137   153   151   am
   138   150   151    1
   139   150   149    1
   140   145   146    1
   141   122   123    1
   142   142   143    1
   143   142   144    1
   144   151   152    2
   145   146   149    1
   146   123   124    1
   147   124   125    1
   148   125   126    2
   149   126   127    1
   150   126   128    1
