@<TRIPOS>MOLECULE
tmp/2gzlA00.pdb
 188 185 0 0 0
SMALL
GASTEIGER

@<TRIPOS>ATOM
      1  N         15.2170   19.0930   25.8470 N.3     9  PHE9       -0.1227
      2  CA        14.5580   18.7230   24.6100 C.3     9  PHE9        0.1736
      3  C         13.2230   18.0810   24.9260 C.2     9  PHE9        0.2595
      4  O         13.1310   17.2330   25.8140 O.2     9  PHE9       -0.2718
      5  CB        15.4290   17.7620   23.7920 C.3     9  PHE9        0.0547
      6  CG        14.8070   17.3400   22.4950 C.ar    9  PHE9       -0.0202
      7  CD1       14.8520   18.1760   21.3870 C.ar    9  PHE9       -0.0042
      8  CD2       14.1590   16.1110   22.3820 C.ar    9  PHE9       -0.0042
      9  CE1       14.2650   17.7960   20.1690 C.ar    9  PHE9       -0.0003
     10  CE2       13.5730   15.7150   21.1700 C.ar    9  PHE9       -0.0003
     11  CZ        13.6290   16.5640   20.0620 C.ar    9  PHE9       -0.0000
     12  N         12.1870   18.4820   24.1960 N.am   10  ASP10      -0.1960
     13  CA        10.8650   17.9130   24.3980 C.3    10  ASP10       0.1840
     14  C         10.0440   17.8030   23.1090 C.2    10  ASP10       0.2622
     15  O         10.2830   18.5390   22.1380 O.2    10  ASP10      -0.2715
     16  CB        10.1050   18.7350   25.4280 C.3    10  ASP10       0.1450
     17  CG         8.9790   17.9680   26.0500 C.2    10  ASP10       0.3671
     18  OD1        8.9430   16.7290   25.9050 O.co2  10  ASP10      -0.2456
     19  OD2        8.1230   18.5950   26.6910 O.co2  10  ASP10      -0.2456
     20  N          9.0790   16.8800   23.1180 N.am   11  VAL11      -0.1963
     21  CA         8.1830   16.6560   21.9900 C.3    11  VAL11       0.1727
     22  C          6.7720   16.3550   22.4780 C.2    11  VAL11       0.2616
     23  O          6.5950   15.6000   23.4310 O.2    11  VAL11      -0.2715
     24  CB         8.6430   15.4660   21.1190 C.3    11  VAL11       0.0290
     25  CG1        7.5340   15.0380   20.1380 C.3    11  VAL11       0.0023
     26  CG2        9.9180   15.8010   20.3650 C.3    11  VAL11       0.0023
     27  N          5.7720   16.9470   21.8270 N.am   12  HIS12      -0.1973
     28  CA         4.3900   16.4910   21.9890 C.3    12  HIS12       0.1656
     29  C          3.6810   16.2930   20.6640 C.2    12  HIS12       0.2291
     30  O          3.9490   16.9900   19.6800 O.2    12  HIS12      -0.2864
     31  CB         3.5860   17.4180   22.9000 C.3    12  HIS12       0.0771
     32  CG         4.0570   17.4030   24.3190 C.ar   12  HIS12       0.0820
     33  ND1        3.5870   16.4990   25.2470 N.ar   12  HIS12      -0.2267
     34  CD2        4.9770   18.1580   24.9610 C.ar   12  HIS12       0.1154
     35  CE1        4.1930   16.7040   26.4010 C.ar   12  HIS12       0.1986
     36  NE2        5.0410   17.7060   26.2550 N.ar   12  HIS12      -0.2212
     37  N         -0.4510   14.8560   29.6110 N.3    36  HIS36      -0.1226
     38  CA        -0.7770   15.0950   31.0040 C.3    36  HIS36       0.1752
     39  C         -0.8690   16.5620   31.3330 C.2    36  HIS36       0.2596
     40  O         -1.6910   16.9610   32.1400 O.2    36  HIS36      -0.2718
     41  CB         0.2840   14.4680   31.8790 C.3    36  HIS36       0.0759
     42  CG        -0.2560   13.5590   32.9370 C.ar   36  HIS36       0.0818
     43  ND1        0.3690   13.3810   34.1520 N.ar   36  HIS36      -0.2268
     44  CD2       -1.3500   12.7650   32.9570 C.ar   36  HIS36       0.1154
     45  CE1       -0.3180   12.5170   34.8750 C.ar   36  HIS36       0.1986
     46  NE2       -1.3660   12.1330   34.1730 N.ar   36  HIS36      -0.2212
     47  N         -0.0190   17.3660   30.7030 N.am   37  SER37      -0.1952
     48  CA         0.3050   18.6920   31.2150 C.3    37  SER37       0.1924
     49  C         -0.4920   19.7720   30.4900 C.2    37  SER37       0.2314
     50  O         -1.5150   19.4900   29.8670 O.2    37  SER37      -0.2863
     51  CB         1.8040   18.9660   31.0830 C.3    37  SER37       0.2116
     52  OG         2.2140   18.9200   29.7270 O.3    37  SER37      -0.2180
     53  N          8.7500   22.8720   29.0450 N.3    44  HIS44      -0.1241
     54  CA         9.3490   21.5940   29.4340 C.3    44  HIS44       0.1621
     55  C         10.8170   21.4950   29.0160 C.2    44  HIS44       0.2264
     56  O         11.6680   21.1040   29.8230 O.2    44  HIS44      -0.2867
     57  CB         8.5720   20.4010   28.8690 C.3    44  HIS44       0.0745
     58  CG         7.1590   20.3010   29.3600 C.ar   44  HIS44       0.0817
     59  ND1        6.2970   19.3040   28.9470 N.ar   44  HIS44      -0.2268
     60  CD2        6.4490   21.0830   30.2090 C.ar   44  HIS44       0.1154
     61  CE1        5.1260   19.4660   29.5380 C.ar   44  HIS44       0.1986
     62  NE2        5.1880   20.5440   30.3010 N.ar   44  HIS44      -0.2212
     63  N         13.9230   21.4250   31.7340 N.3    48  ASP48      -0.1239
     64  CA        15.0010   20.4370   31.6720 C.3    48  ASP48       0.1674
     65  C         16.3850   21.0510   31.4790 C.2    48  ASP48       0.2266
     66  O         17.3630   20.5400   32.0350 O.2    48  ASP48      -0.2867
     67  CB        14.7400   19.3980   30.5820 C.3    48  ASP48       0.1410
     68  CG        13.8480   18.2640   31.0560 C.2    48  ASP48       0.3668
     69  OD1       13.5140   18.2250   32.2600 O.co2  48  ASP48      -0.2456
     70  OD2       13.4900   17.3990   30.2210 O.co2  48  ASP48      -0.2456
     71  N         16.2450   15.9690   35.9500 N.3    58  ASP58      -0.1225
     72  CA        15.0350   15.6950   35.1850 C.3    58  ASP58       0.1805
     73  C         13.8240   16.3850   35.8030 C.2    58  ASP58       0.2598
     74  O         13.8460   16.7690   36.9720 O.2    58  ASP58      -0.2718
     75  CB        14.7900   14.1880   35.0900 C.3    58  ASP58       0.1424
     76  CG        14.6560   13.7070   33.6590 C.2    58  ASP58       0.3668
     77  OD1       13.7850   14.2320   32.9340 O.co2  58  ASP58      -0.2456
     78  OD2       15.4210   12.8050   33.2590 O.co2  58  ASP58      -0.2456
     79  N         12.7680   16.5390   35.0100 N.am   59  ILE59      -0.1966
     80  CA        11.4470   16.8460   35.5440 C.3    59  ILE59       0.1727
     81  C         10.7160   15.5770   35.9700 C.2    59  ILE59       0.2617
     82  O          9.8890   15.6010   36.8810 O.2    59  ILE59      -0.2715
     83  CB        10.5850   17.6040   34.5170 C.3    59  ILE59       0.0290
     84  CG1       10.9770   17.2040   33.0930 C.3    59  ILE59       0.0022
     85  CG2       10.7220   19.1060   34.7120 C.3    59  ILE59       0.0023
     86  CD1       10.2150   17.9490   32.0190 C.3    59  ILE59       0.0001
     87  N         11.0280   14.4690   35.3050 N.am   60  GLY60      -0.1940
     88  CA        10.6750   13.1540   35.8060 C.3    60  GLY60       0.2014
     89  C         11.3200   12.8500   37.1440 C.2    60  GLY60       0.2638
     90  O         10.7520   12.1350   37.9690 O.2    60  GLY60      -0.2714
     91  N         12.5120   13.3970   37.3580 N.am   61  LYS61      -0.1977
     92  CA        13.3310   13.0230   38.5040 C.3    61  LYS61       0.1596
     93  C         13.0030   13.8160   39.7500 C.2    61  LYS61       0.2287
     94  O         13.2160   13.3440   40.8580 O.2    61  LYS61      -0.2864
     95  CB        14.8070   13.1900   38.1740 C.3    61  LYS61       0.0298
     96  CG        15.7130   13.3190   39.3740 C.3    61  LYS61       0.0038
     97  CD        16.3620   12.0050   39.6870 C.3    61  LYS61       0.0206
     98  CE        17.2870   12.1210   40.8780 C.3    61  LYS61       0.1093
     99  NZ        17.9430   10.8080   41.1600 N.3    61  LYS61      -0.1314
    100  N          9.8700   15.5260   39.6050 N.3    63  PHE63      -0.1228
    101  CA         8.5020   15.0780   39.8390 C.3    63  PHE63       0.1721
    102  C          8.1970   13.8060   39.0550 C.2    63  PHE63       0.2437
    103  O          7.5720   13.8530   37.9950 O.2    63  PHE63      -0.2733
    104  CB         7.5060   16.1770   39.4660 C.3    63  PHE63       0.0547
    105  CG         7.7200   17.4660   40.2070 C.ar   63  PHE63      -0.0202
    106  CD1        7.0240   17.7320   41.3750 C.ar   63  PHE63      -0.0042
    107  CD2        8.6150   18.4110   39.7360 C.ar   63  PHE63      -0.0042
    108  CE1        7.2190   18.9170   42.0590 C.ar   63  PHE63      -0.0003
    109  CE2        8.8140   19.5980   40.4160 C.ar   63  PHE63      -0.0003
    110  CZ         8.1150   19.8510   41.5790 C.ar   63  PHE63      -0.0000
    111  N          8.6420   12.6700   39.5820 N.am   64  PRO64      -0.2718
    112  CA         7.8640   11.4300   39.5100 C.3    64  PRO64       0.1535
    113  C          6.3670   11.7060   39.4190 C.2    64  PRO64       0.2599
    114  O          5.8630   12.6030   40.0940 O.2    64  PRO64      -0.2715
    115  CB         8.1910   10.7400   40.8360 C.3    64  PRO64       0.0310
    116  CG         9.5470   11.2390   41.1880 C.3    64  PRO64       0.0237
    117  CD         9.6010   12.6590   40.7010 C.3    64  PRO64       0.0939
    118  N          5.6680   10.9380   38.5890 N.am   65  ASP65      -0.1958
    119  CA         4.2100   10.9510   38.5770 C.3    65  ASP65       0.1840
    120  C          3.6480   11.0950   39.9870 C.2    65  ASP65       0.2622
    121  O          3.2890   10.1070   40.6270 O.2    65  ASP65      -0.2715
    122  CB         3.6690    9.6780   37.9230 C.3    65  ASP65       0.1450
    123  CG         3.6740    9.7530   36.4090 C.2    65  ASP65       0.3671
    124  OD1        4.0620   10.8090   35.8660 O.co2  65  ASP65      -0.2456
    125  OD2        3.2900    8.7560   35.7610 O.co2  65  ASP65      -0.2456
    126  N          3.5760   12.3330   40.4660 N.am   66  THR66      -0.1951
    127  CA         2.5530   12.7230   41.4280 C.3    66  THR66       0.1897
    128  C          1.1850   12.1810   41.0300 C.2    66  THR66       0.2313
    129  O          0.2940   12.0400   41.8680 O.2    66  THR66      -0.2863
    130  CB         2.4660   14.2540   41.5700 C.3    66  THR66       0.1794
    131  OG1        3.7620   14.7830   41.8770 O.3    66  THR66      -0.2208
    132  CG2        1.4930   14.6330   42.6760 C.3    66  THR66       0.0378
    133  N         -2.8410   16.4260   38.4030 N.3    70  PHE70      -0.1241
    134  CA        -2.1530   16.8830   37.2020 C.3    70  PHE70       0.1605
    135  C         -2.8000   16.3120   35.9450 C.2    70  PHE70       0.2264
    136  O         -2.2770   15.3800   35.3340 O.2    70  PHE70      -0.2867
    137  CB        -0.6730   16.4980   37.2530 C.3    70  PHE70       0.0534
    138  CG         0.0560   17.0480   38.4450 C.ar   70  PHE70      -0.0203
    139  CD1       -0.3670   18.2180   39.0530 C.ar   70  PHE70      -0.0042
    140  CD2        1.1650   16.3950   38.9580 C.ar   70  PHE70      -0.0042
    141  CE1        0.3020   18.7260   40.1510 C.ar   70  PHE70      -0.0003
    142  CE2        1.8380   16.8990   40.0550 C.ar   70  PHE70      -0.0003
    143  CZ         1.4050   18.0660   40.6520 C.ar   70  PHE70      -0.0000
    144  N         -2.1590   20.2630   33.8360 N.3    73  ALA73      -0.1231
    145  CA        -1.2560   20.9280   34.7800 C.3    73  ALA73       0.1694
    146  C         -0.5080   22.1000   34.1340 C.2    73  ALA73       0.2592
    147  O         -0.0260   21.9940   32.9990 O.2    73  ALA73      -0.2718
    148  CB        -0.2720   19.9250   35.3780 C.3    73  ALA73       0.0304
    149  N         -0.4160   23.2080   34.8670 N.am   74  ASP74      -0.1960
    150  CA         0.1960   24.4250   34.3560 C.3    74  ASP74       0.1840
    151  C          1.7280   24.3320   34.3820 C.2    74  ASP74       0.2622
    152  O          2.3480   24.4140   35.4460 O.2    74  ASP74      -0.2715
    153  CB        -0.3070   25.6370   35.1500 C.3    74  ASP74       0.1450
    154  CG         0.1160   26.9650   34.5450 C.2    74  ASP74       0.3671
    155  OD1        1.0750   27.0080   33.7440 O.co2  74  ASP74      -0.2456
    156  OD2       -0.5090   27.9890   34.8810 O.co2  74  ASP74      -0.2456
    157  N          2.3230   24.1810   33.1960 N.am   75  SER75      -0.1950
    158  CA         3.7780   24.0680   33.0340 C.3    75  SER75       0.1924
    159  C          4.5820   25.2410   33.5910 C.2    75  SER75       0.2314
    160  O          5.7570   25.0850   33.9040 O.2    75  SER75      -0.2863
    161  CB         4.1490   23.8390   31.5720 C.3    75  SER75       0.2116
    162  OG         3.6860   22.5790   31.1350 O.3    75  SER75      -0.2180
    163  N          3.8890   26.5250   36.5070 N.3    77  GLU77      -0.1231
    164  CA         4.0570   26.1010   37.9030 C.3    77  GLU77       0.1699
    165  C          5.2680   25.1920   38.0350 C.2    77  GLU77       0.2592
    166  O          6.0810   25.3620   38.9380 O.2    77  GLU77      -0.2718
    167  CB         2.8120   25.3720   38.4230 C.3    77  GLU77       0.0402
    168  CG         1.7500   26.2810   39.0210 C.3    77  GLU77       0.1161
    169  CD         0.3940   25.5910   39.2190 C.2    77  GLU77       0.3649
    170  OE1        0.3070   24.3410   39.1220 O.co2  77  GLU77      -0.2457
    171  OE2       -0.5940   26.3190   39.4700 O.co2  77  GLU77      -0.2457
    172  N          5.3740   24.2310   37.1220 N.am   78  LEU78      -0.1980
    173  CA         6.5270   23.3460   37.0530 C.3    78  LEU78       0.1596
    174  C          7.8100   24.1440   36.9000 C.2    78  LEU78       0.2287
    175  O          8.7840   23.8940   37.6090 O.2    78  LEU78      -0.2864
    176  CB         6.3750   22.3490   35.9040 C.3    78  LEU78       0.0297
    177  CG         7.5530   21.4270   35.5570 C.3    78  LEU78       0.0022
    178  CD1        7.9850   20.5590   36.7450 C.3    78  LEU78       0.0001
    179  CD2        7.2200   20.5440   34.3510 C.3    78  LEU78       0.0001
    180  N          8.6100   26.1660   40.2710 N.3    81  GLU81      -0.1245
    181  CA         9.0400   25.2400   41.3130 C.3    81  GLU81       0.1567
    182  C         10.4480   24.7070   41.0440 C.2    81  GLU81       0.2260
    183  O         11.2920   24.7080   41.9400 O.2    81  GLU81      -0.2867
    184  CB         8.0300   24.0920   41.4930 C.3    81  GLU81       0.0388
    185  CG         8.3840   23.0570   42.5970 C.3    81  GLU81       0.1160
    186  CD         8.7500   23.6660   43.9640 C.2    81  GLU81       0.3649
    187  OE1        8.2540   24.7670   44.3110 O.co2  81  GLU81      -0.2457
    188  OE2        9.5380   23.0250   44.7010 O.co2  81  GLU81      -0.2457
@<TRIPOS>BOND
     1    30    29    2
     2    11     9   ar
     3    11    10   ar
     4    25    24    1
     5     9     7   ar
     6    26    24    1
     7    29    28    1
     8    24    21    1
     9    10     8   ar
    10     7     6   ar
    11    27    28    1
    12    27    22   am
    13    28    31    1
    14    21    22    1
    15    21    20    1
    16    15    14    2
    17     8     6   ar
    18    22    23    2
    19     6     5    1
    20    31    32    1
    21    14    20   am
    22    14    13    1
    23     5     2    1
    24    12    13    1
    25    12     3   am
    26    32    34   ar
    27    32    33   ar
    28    13    16    1
    29     2     3    1
    30     2     1    1
    31     3     4    2
    32    34    36   ar
    33    33    35   ar
    34    16    17    1
    35    18    17   ar
    36    17    19   ar
    37    36    35   ar
    38    57    58    1
    39    57    54    1
    40    59    58   ar
    41    59    61   ar
    42    55    54    1
    43    55    56    2
    44    53    54    1
    45    58    60   ar
    46    61    62   ar
    47    37    38    1
    48    52    51    1
    49    50    49    2
    50    60    62   ar
    51    70    68   ar
    52    49    48    1
    53    67    68    1
    54    67    64    1
    55    47    48    1
    56    47    39   am
    57    38    39    1
    58    38    41    1
    59    68    69   ar
    60    51    48    1
    61   162   161    1
    62    39    40    2
    63    65    64    1
    64    65    66    2
    65   161   158    1
    66    64    63    1
    67    41    42    1
    68    86    84    1
    69    77    76   ar
    70    42    44   ar
    71    42    43   ar
    72    44    46   ar
    73   147   146    2
    74   158   157    1
    75   158   159    1
    76    84    83    1
    77   157   151   am
    78    78    76   ar
    79   159   160    2
    80    76    75    1
    81   155   154   ar
    82   144   145    1
    83   146   145    1
    84   146   149   am
    85    43    45   ar
    86    46    45   ar
    87   179   177    1
    88   150   151    1
    89   150   149    1
    90   150   153    1
    91   151   152    2
    92    83    85    1
    93    83    80    1
    94   154   156   ar
    95   154   153    1
    96   145   148    1
    97    79    80    1
    98    79    73   am
    99    75    72    1
   100    72    73    1
   101    72    71    1
   102    87    88    1
   103    87    81   am
   104   136   135    2
   105    80    81    1
   106   177   176    1
   107   177   178    1
   108   125   123   ar
   109    73    74    2
   110    88    89    1
   111   124   123   ar
   112   176   173    1
   113   135   134    1
   114    81    82    2
   115   123   122    1
   116   163   164    1
   117   174   173    1
   118   174   175    2
   119   173   172    1
   120   172   165   am
   121    89    91   am
   122    89    90    2
   123   134   137    1
   124   134   133    1
   125   137   138    1
   126    91    92    1
   127   164   165    1
   128   164   167    1
   129   122   119    1
   130   103   102    2
   131   165   166    2
   132    95    92    1
   133    95    96    1
   134   167   168    1
   135   138   140   ar
   136   138   139   ar
   137    92    93    1
   138   119   118    1
   139   119   120    1
   140   118   113   am
   141   140   142   ar
   142   168   169    1
   143   139   141   ar
   144   102   111   am
   145   102   101    1
   146   170   169   ar
   147   169   171   ar
   148    96    97    1
   149   113   112    1
   150   113   114    2
   151   104   101    1
   152   104   105    1
   153   112   111    1
   154   112   115    1
   155   111   117    1
   156   100   101    1
   157    97    98    1
   158   107   105   ar
   159   107   109   ar
   160    93    94    2
   161   120   126   am
   162   120   121    2
   163   142   143   ar
   164   141   143   ar
   165   105   106   ar
   166   180   181    1
   167   109   110   ar
   168   126   127    1
   169   117   116    1
   170   115   116    1
   171    98    99    1
   172   128   127    1
   173   128   129    2
   174   182   181    1
   175   182   183    2
   176   181   184    1
   177   106   108   ar
   178   127   130    1
   179   184   185    1
   180   130   131    1
   181   130   132    1
   182   110   108   ar
   183   185   186    1
   184   186   187   ar
   185   186   188   ar
