@<TRIPOS>MOLECULE
tmp/2h02B00.pdb
 121 117 0 0 0
SMALL
GASTEIGER

@<TRIPOS>ATOM
      1  N         58.0310   21.4160   75.1750 N.3    55  TYR55      -0.1227
      2  CA        58.1050   20.0040   75.5290 C.3    55  TYR55       0.1736
      3  C         59.0800   19.5170   74.4900 C.2    55  TYR55       0.2595
      4  O         58.9210   19.8060   73.3060 O.2    55  TYR55      -0.2718
      5  CB        56.7580   19.2860   75.3940 C.3    55  TYR55       0.0548
      6  CG        55.6410   19.8240   76.2760 C.ar   55  TYR55      -0.0200
      7  CD1       55.5430   19.5150   77.6450 C.ar   55  TYR55      -0.0009
      8  CD2       54.6440   20.6280   75.7270 C.ar   55  TYR55      -0.0009
      9  CE1       54.4670   20.0100   78.4330 C.ar   55  TYR55       0.0417
     10  CE2       53.5830   21.1360   76.5010 C.ar   55  TYR55       0.0417
     11  CZ        53.4940   20.8340   77.8460 C.ar   55  TYR55       0.1957
     12  OH        52.4070   21.3850   78.5220 O.3    55  TYR55      -0.2866
     13  N         60.0900   18.7820   74.9310 N.am   56  ASN56      -0.1960
     14  CA        61.1430   18.3730   74.0100 C.3    56  ASN56       0.1819
     15  C         60.7560   17.3210   72.9660 C.2    56  ASN56       0.2621
     16  O         61.4460   17.1340   71.9510 O.2    56  ASN56      -0.2715
     17  CB        62.4340   18.0510   74.7670 C.3    56  ASN56       0.1195
     18  CG        63.1440   19.2940   75.2720 C.2    56  ASN56       0.2630
     19  OD1       63.7780   19.2460   76.3270 O.2    56  ASN56      -0.2716
     20  ND2       63.0630   20.4080   74.5300 N.am   56  ASN56      -0.0877
     21  N         59.6170   16.6670   73.1710 N.am   57  ASN57      -0.1958
     22  CA        59.1360   15.7110   72.1690 C.3    57  ASN57       0.1819
     23  C         57.8900   16.1520   71.4040 C.2    57  ASN57       0.2621
     24  O         57.1430   15.3470   70.8320 O.2    57  ASN57      -0.2715
     25  CB        58.8830   14.3920   72.9080 C.3    57  ASN57       0.1195
     26  CG        57.8170   14.5270   73.9840 C.2    57  ASN57       0.2630
     27  OD1       57.4520   15.6340   74.3900 O.2    57  ASN57      -0.2716
     28  ND2       57.3060   13.3830   74.4390 N.am   57  ASN57      -0.0877
     29  N         57.6220   17.4550   71.4320 N.am   58  ILE58      -0.1977
     30  CA        56.5500   18.0050   70.6000 C.3    58  ILE58       0.1596
     31  C         57.1060   19.1900   69.7950 C.2    58  ILE58       0.2287
     32  O         57.2600   20.3020   70.3130 O.2    58  ILE58      -0.2864
     33  CB        55.2780   18.4030   71.3840 C.3    58  ILE58       0.0276
     34  CG1       54.7610   17.2770   72.2860 C.3    58  ILE58       0.0022
     35  CG2       54.3070   19.0160   70.3950 C.3    58  ILE58       0.0022
     36  CD1       53.6540   16.3240   71.8010 C.3    58  ILE58       0.0001
     37  N         43.5150   19.8370   79.9150 N.3   184  ASP184     -0.1225
     38  CA        44.5200   19.1890   79.1130 C.3   184  ASP184      0.1805
     39  C         44.2750   17.6770   78.9370 C.2   184  ASP184      0.2597
     40  O         43.7220   17.0150   79.8290 O.2   184  ASP184     -0.2718
     41  CB        45.9180   19.4860   79.6480 C.3   184  ASP184      0.1424
     42  CG        46.9580   19.3060   78.5790 C.2   184  ASP184      0.3668
     43  OD1       48.1310   19.6260   78.8810 O.co2 184  ASP184     -0.2456
     44  OD2       46.5790   18.8270   77.4700 O.co2 184  ASP184     -0.2456
     45  N         44.7110   17.1370   77.7980 N.am  185  HIS185     -0.1975
     46  CA        44.4130   15.7480   77.3730 C.3   185  HIS185      0.1656
     47  C         42.9530   15.3170   77.4540 C.2   185  HIS185      0.2291
     48  O         42.6590   14.1470   77.3000 O.2   185  HIS185     -0.2864
     49  CB        45.2850   14.7050   78.0750 C.3   185  HIS185      0.0771
     50  CG        46.6930   15.1640   78.2640 C.ar  185  HIS185      0.0820
     51  ND1       47.6170   15.1400   77.2440 N.ar  185  HIS185     -0.2267
     52  CD2       47.3180   15.7150   79.3320 C.ar  185  HIS185      0.1154
     53  CE1       48.7630   15.6330   77.6850 C.ar  185  HIS185      0.1986
     54  NE2       48.6070   15.9870   78.9490 N.ar  185  HIS185     -0.2212
     55  N         47.3620   25.5770   72.2230 N.3   218  CYS218     -0.1221
     56  CA        46.9530   25.1200   73.5470 C.3   218  CYS218      0.1808
     57  C         48.2660   25.0820   74.3380 C.2   218  CYS218      0.2602
     58  O         49.0020   26.0940   74.3720 O.2   218  CYS218     -0.2717
     59  CB        46.2020   23.7850   73.4780 C.3   218  CYS218      0.0970
     60  SG        47.0360   22.5730   72.4100 S.3   218  CYS218     -0.0800
     61  N         48.5870   23.9420   74.9410 N.am  219  SER219     -0.1938
     62  CA        49.8980   23.8520   75.6110 C.3   219  SER219      0.2055
     63  C         51.0220   23.3990   74.6560 C.2   219  SER219      0.2642
     64  O         51.9870   24.1430   74.4410 O.2   219  SER219     -0.2714
     65  CB        49.8330   23.0840   76.9530 C.3   219  SER219      0.2130
     66  OG        51.0330   23.2400   77.7140 O.3   219  SER219     -0.2179
     67  N         50.8840   22.2120   74.0720 N.am  220  ALA220     -0.1977
     68  CA        51.8230   21.6580   73.0970 C.3   220  ALA220      0.1597
     69  C         51.4870   22.0890   71.6880 C.2   220  ALA220      0.2287
     70  O         52.3750   22.0220   70.8190 O.2   220  ALA220     -0.2864
     71  CB        51.8340   20.1420   73.0910 C.3   220  ALA220      0.0319
     72  N         48.7700   20.4920   69.9310 N.3   222  VAL222     -0.1231
     73  CA        48.5080   19.2290   69.2290 C.3   222  VAL222      0.1692
     74  C         47.1100   18.7310   69.5950 C.2   222  VAL222      0.2593
     75  O         46.2670   18.5200   68.7160 O.2   222  VAL222     -0.2718
     76  CB        49.6570   18.1330   69.2550 C.3   222  VAL222      0.0266
     77  CG1       51.0370   18.6800   68.8870 C.3   222  VAL222      0.0020
     78  CG2       49.8220   17.4380   70.6310 C.3   222  VAL222      0.0020
     79  N         46.7950   18.5300   70.8640 N.am  223  GLY223     -0.1942
     80  CA        45.5400   17.7980   71.1400 C.3   223  GLY223      0.2014
     81  C         44.2920   18.6550   71.1080 C.2   223  GLY223      0.2638
     82  O         43.3850   18.4940   70.2890 O.2   223  GLY223     -0.2714
     83  N         44.2540   19.6260   72.0000 N.am  224  ARG224     -0.1977
     84  CA        43.0950   20.4960   72.1020 C.3   224  ARG224      0.1597
     85  C         43.1110   21.4480   70.9080 C.2   224  ARG224      0.2287
     86  O         42.0320   21.7450   70.3750 O.2   224  ARG224     -0.2864
     87  CB        43.1150   21.2660   73.4400 C.3   224  ARG224      0.0334
     88  CG        43.1020   20.3170   74.6120 C.3   224  ARG224      0.0492
     89  CD        43.2070   21.0270   75.9390 C.3   224  ARG224      0.2205
     90  NE        44.5820   21.4140   76.1930 N.pl3 224  ARG224     -0.0865
     91  CZ        44.9350   22.1850   77.2040 C.cat 224  ARG224      0.5346
     92  NH1       43.9740   22.5220   78.0580 N.pl3 224  ARG224      0.1354
     93  NH2       46.2130   22.5340   77.3760 N.pl3 224  ARG224      0.1354
     94  N         50.7730   14.4090   66.4410 N.3   259  HIS259     -0.1241
     95  CA        49.8140   14.1620   67.4980 C.3   259  HIS259      0.1621
     96  C         48.5520   14.9670   67.3650 C.2   259  HIS259      0.2264
     97  O         47.8170   15.0250   68.3370 O.2   259  HIS259     -0.2867
     98  CB        50.3840   14.4680   68.8830 C.3   259  HIS259      0.0745
     99  CG        51.5540   13.6170   69.2740 C.ar  259  HIS259      0.0817
    100  ND1       51.5430   12.2420   69.1860 N.ar  259  HIS259     -0.2268
    101  CD2       52.7810   13.9570   69.7340 C.ar  259  HIS259      0.1154
    102  CE1       52.7130   11.7730   69.5830 C.ar  259  HIS259      0.1986
    103  NE2       53.4840   12.7910   69.9260 N.ar  259  HIS259     -0.2212
    104  N         45.0120   14.3270   70.1410 N.3   262  GLN262     -0.1245
    105  CA        46.1160   13.6400   70.8100 C.3   262  GLN262      0.1566
    106  C         45.6400   12.4660   71.6610 C.2   262  GLN262      0.2260
    107  O         46.4360   11.5950   71.9880 O.2   262  GLN262     -0.2867
    108  CB        46.9230   14.6270   71.6570 C.3   262  GLN262      0.0367
    109  CG        48.1780   14.0780   72.3550 C.3   262  GLN262      0.0905
    110  CD        48.1080   14.0510   73.8840 C.2   262  GLN262      0.2608
    111  OE1       47.3500   14.7810   74.5370 O.2   262  GLN262     -0.2717
    112  NE2       48.9380   13.1950   74.4650 N.am  262  GLN262     -0.0878
    113  N         39.4360   12.4690   72.5710 N.3   266  GLN266     -0.1245
    114  CA        39.1860   13.6570   71.7440 C.3   266  GLN266      0.1566
    115  C         38.5350   13.3050   70.4090 C.2   266  GLN266      0.2260
    116  O         37.6070   13.9900   69.9710 O.2   266  GLN266     -0.2867
    117  CB        40.4640   14.4800   71.5360 C.3   266  GLN266      0.0367
    118  CG        40.7950   15.3080   72.7700 C.3   266  GLN266      0.0905
    119  CD        42.2620   15.6690   72.8550 C.2   266  GLN266      0.2608
    120  OE1       43.0700   15.2680   72.0010 O.2   266  GLN266     -0.2717
    121  NE2       42.6180   16.4350   73.8890 N.am  266  GLN266     -0.0878
@<TRIPOS>BOND
     1    94    95    1
     2    96    95    1
     3    96    97    2
     4    95    98    1
     5    75    74    2
     6    98    99    1
     7    77    76    1
     8   100    99   ar
     9   100   102   ar
    10    73    76    1
    11    73    74    1
    12    73    72    1
    13    76    78    1
    14    99   101   ar
    15   102   103   ar
    16    74    79   am
    17   101   103   ar
    18    31    32    2
    19    31    30    1
    20   116   115    2
    21   104   105    1
    22    82    81    2
    23    86    85    2
    24    35    33    1
    25   115   114    1
    26    30    33    1
    27    30    29    1
    28   105   108    1
    29   105   106    1
    30    70    69    2
    31    24    23    2
    32    79    80    1
    33    85    84    1
    34    81    80    1
    35    81    83   am
    36    33    34    1
    37    23    29   am
    38    23    22    1
    39   117   114    1
    40   117   118    1
    41   108   109    1
    42   106   107    2
    43    69    68    1
    44   114   113    1
    45    36    34    1
    46    16    15    2
    47    83    84    1
    48   120   119    2
    49    84    87    1
    50    22    25    1
    51    22    21    1
    52    55    56    1
    53   109   110    1
    54    60    59    1
    55   118   119    1
    56   119   121   am
    57    25    26    1
    58    15    21   am
    59    15    14    1
    60    71    68    1
    61    68    67    1
    62     4     3    2
    63    87    88    1
    64    59    56    1
    65    56    57    1
    66   110   112   am
    67   110   111    2
    68    26    27    2
    69    26    28   am
    70    14    17    1
    71    14    13    1
    72    67    63   am
    73    57    58    2
    74    57    61   am
    75    64    63    2
    76     3    13   am
    77     3     2    1
    78    20    18   am
    79    88    89    1
    80    63    62    1
    81    17    18    1
    82    61    62    1
    83     1     2    1
    84    18    19    2
    85     5     2    1
    86     5     6    1
    87    62    65    1
    88     8     6   ar
    89     8    10   ar
    90    89    90    1
    91    90    91    2
    92     6     7   ar
    93    10    11   ar
    94    65    66    1
    95    91    93    1
    96    91    92    1
    97    51    53   ar
    98    51    50   ar
    99    48    47    2
   100    46    47    1
   101    46    45    1
   102    46    49    1
   103    44    42   ar
   104     7     9   ar
   105    53    54   ar
   106    45    39   am
   107    11     9   ar
   108    11    12    1
   109    49    50    1
   110    50    52   ar
   111    42    43   ar
   112    42    41    1
   113    39    38    1
   114    39    40    2
   115    54    52   ar
   116    38    41    1
   117    38    37    1
