@<TRIPOS>MOLECULE
tmp/2h03A00.pdb
 161 154 0 0 0
SMALL
GASTEIGER

@<TRIPOS>ATOM
      1  N         29.9660   -0.0970   32.0470 N.3    55  ARG55      -0.1231
      2  CA        29.5250    1.2820   32.2120 C.3    55  ARG55       0.1694
      3  C         28.0950    1.3580   32.7610 C.2    55  ARG55       0.2592
      4  O         27.8110    2.2140   33.6130 O.2    55  ARG55      -0.2718
      5  CB        29.6670    2.0390   30.8850 C.3    55  ARG55       0.0321
      6  CG        29.1590    3.4630   30.8880 C.3    55  ARG55       0.0489
      7  CD        29.5050    4.1820   29.5530 C.3    55  ARG55       0.2205
      8  NE        30.9280    4.4520   29.3760 N.pl3  55  ARG55      -0.0865
      9  CZ        31.5670    5.4670   29.9560 C.cat  55  ARG55       0.5346
     10  NH1       30.9160    6.3040   30.7720 N.pl3  55  ARG55       0.1354
     11  NH2       32.8580    5.6710   29.7430 N.pl3  55  ARG55       0.1354
     12  N         27.2360    0.4630   32.2700 N.am   56  TYR56      -0.1962
     13  CA        25.8220    0.4070   32.6080 C.3    56  TYR56       0.1771
     14  C         25.5650   -1.0360   33.0530 C.2    56  TYR56       0.2620
     15  O         25.7800   -1.9740   32.2810 O.2    56  TYR56      -0.2715
     16  CB        24.9630    0.7340   31.3840 C.3    56  TYR56       0.0574
     17  CG        25.2470    2.1040   30.8160 C.ar   56  TYR56      -0.0198
     18  CD1       24.8850    3.2480   31.5160 C.ar   56  TYR56      -0.0009
     19  CD2       25.8960    2.2580   29.5910 C.ar   56  TYR56      -0.0009
     20  CE1       25.1450    4.5170   31.0260 C.ar   56  TYR56       0.0417
     21  CE2       26.1620    3.5320   29.0790 C.ar   56  TYR56       0.0417
     22  CZ        25.7800    4.6540   29.8000 C.ar   56  TYR56       0.1957
     23  OH        26.0270    5.9380   29.3140 O.3    56  TYR56      -0.2866
     24  N         25.1370   -1.2170   34.2990 N.am   57  ASN57      -0.1958
     25  CA        25.0200   -2.5750   34.8130 C.3    57  ASN57       0.1819
     26  C         23.8900   -3.4200   34.1950 C.2    57  ASN57       0.2621
     27  O         23.9140   -4.6490   34.3200 O.2    57  ASN57      -0.2715
     28  CB        25.0320   -2.5810   36.3490 C.3    57  ASN57       0.1195
     29  CG        26.3710   -2.1220   36.9220 C.2    57  ASN57       0.2630
     30  OD1       27.4220   -2.7010   36.6340 O.2    57  ASN57      -0.2716
     31  ND2       26.3400   -1.0680   37.7360 N.am   57  ASN57      -0.0877
     32  N         22.9460   -2.7900   33.4900 N.am   58  ASN58      -0.1958
     33  CA        21.9240   -3.5160   32.7080 C.3    58  ASN58       0.1819
     34  C         22.3560   -3.9130   31.2900 C.2    58  ASN58       0.2621
     35  O         21.7160   -4.7300   30.6270 O.2    58  ASN58      -0.2715
     36  CB        20.5940   -2.7450   32.6930 C.3    58  ASN58       0.1195
     37  CG        20.6710   -1.4270   31.9240 C.2    58  ASN58       0.2630
     38  OD1       21.6950   -0.7420   31.9470 O.2    58  ASN58      -0.2716
     39  ND2       19.5760   -1.0600   31.2510 N.am   58  ASN58      -0.0877
     40  N         23.4580   -3.3330   30.8200 N.am   59  ILE59      -0.1977
     41  CA        23.9130   -3.5620   29.4500 C.3    59  ILE59       0.1596
     42  C         25.1950   -4.4000   29.4560 C.2    59  ILE59       0.2287
     43  O         26.2960   -3.8550   29.5850 O.2    59  ILE59      -0.2864
     44  CB        24.1540   -2.2180   28.6900 C.3    59  ILE59       0.0276
     45  CG1       22.9360   -1.2840   28.7530 C.3    59  ILE59       0.0022
     46  CG2       24.5560   -2.4810   27.2430 C.3    59  ILE59       0.0022
     47  CD1       21.7940   -1.6520   27.7880 C.3    59  ILE59       0.0001
     48  N         24.6240   16.1030   27.3030 N.3   125  LYS125     -0.1245
     49  CA        23.7280   16.6330   28.3300 C.3   125  LYS125      0.1561
     50  C         24.4180   16.6240   29.7000 C.2   125  LYS125      0.2260
     51  O         23.8300   16.1700   30.6910 O.2   125  LYS125     -0.2867
     52  CB        22.4410   15.8010   28.3920 C.3   125  LYS125      0.0271
     53  CG        21.6080   15.7850   27.1020 C.3   125  LYS125      0.0035
     54  CD        20.2480   15.1020   27.3150 C.3   125  LYS125      0.0206
     55  CE        19.4480   15.0180   26.0140 C.3   125  LYS125      0.1093
     56  NZ        18.2310   14.1360   26.1070 N.3   125  LYS125     -0.1314
     57  N         26.7380   14.8260   31.0490 N.3   127  ARG127     -0.1245
     58  CA        27.1880   13.5360   31.5980 C.3   127  ARG127      0.1563
     59  C         28.3460   12.9670   30.7640 C.2   127  ARG127      0.2260
     60  O         28.3300   13.0950   29.5340 O.2   127  ARG127     -0.2867
     61  CB        26.0330   12.5260   31.5900 C.3   127  ARG127      0.0307
     62  CG        24.9760   12.7680   32.6710 C.3   127  ARG127      0.0489
     63  CD        25.5520   12.6530   34.0970 C.3   127  ARG127      0.2205
     64  NE        25.8900   11.2740   34.4540 N.pl3 127  ARG127     -0.0865
     65  CZ        26.4910   10.9070   35.5870 C.cat 127  ARG127      0.5346
     66  NH1       26.8310   11.8130   36.4980 N.pl3 127  ARG127      0.1354
     67  NH2       26.7570    9.6220   35.8110 N.pl3 127  ARG127      0.1354
     68  N         29.8370   10.1720   28.7750 N.3   129  LYS129     -0.1245
     69  CA        29.2540    9.0130   28.0860 C.3   129  LYS129      0.1561
     70  C         30.3460    8.0780   27.5750 C.2   129  LYS129      0.2260
     71  O         30.0990    6.9080   27.2630 O.2   129  LYS129     -0.2867
     72  CB        28.4160    9.4730   26.8850 C.3   129  LYS129      0.0271
     73  CG        27.2640   10.4240   27.1950 C.3   129  LYS129      0.0035
     74  CD        26.2490    9.8000   28.1510 C.3   129  LYS129      0.0206
     75  CE        24.8850   10.4690   27.9720 C.3   129  LYS129      0.1093
     76  NZ        24.0540    9.7950   26.9350 N.3   129  LYS129     -0.1314
     77  N         22.0600   10.9410   22.0010 N.3   188  ASP188     -0.1225
     78  CA        21.7700    9.6670   22.6520 C.3   188  ASP188      0.1805
     79  C         20.2660    9.4190   22.6870 C.2   188  ASP188      0.2597
     80  O         19.5060   10.3800   22.8230 O.2   188  ASP188     -0.2718
     81  CB        22.3760    9.6280   24.0450 C.3   188  ASP188      0.1424
     82  CG        22.5540    8.2210   24.5470 C.2   188  ASP188      0.3668
     83  OD1       23.1020    8.0540   25.6580 O.co2 188  ASP188     -0.2456
     84  OD2       22.1220    7.2990   23.8140 O.co2 188  ASP188     -0.2456
     85  N         19.8540    8.1590   22.5270 N.am  189  HIS189     -0.1975
     86  CA        18.4310    7.7660   22.4480 C.3   189  HIS189      0.1656
     87  C         17.6570    8.3720   21.2870 C.2   189  HIS189      0.2291
     88  O         16.4300    8.3650   21.2890 O.2   189  HIS189     -0.2864
     89  CB        17.6820    8.0750   23.7480 C.3   189  HIS189      0.0771
     90  CG        18.3590    7.5330   24.9560 C.ar  189  HIS189      0.0820
     91  ND1       18.6210    6.1890   25.1130 N.ar  189  HIS189     -0.2267
     92  CD2       18.8320    8.1460   26.0670 C.ar  189  HIS189      0.1154
     93  CE1       19.2280    5.9950   26.2690 C.ar  189  HIS189      0.1986
     94  NE2       19.3750    7.1680   26.8650 N.ar  189  HIS189     -0.2212
     95  N         29.3630    3.2920   21.0620 N.3   222  CYS222     -0.1221
     96  CA        28.7410    4.5500   21.3980 C.3   222  CYS222      0.1808
     97  C         28.9720    4.7020   22.8930 C.2   222  CYS222      0.2602
     98  O         30.1110    4.5860   23.3650 O.2   222  CYS222     -0.2717
     99  CB        27.2730    4.5970   20.9430 C.3   222  CYS222      0.0970
    100  SG        26.3380    3.0570   21.2650 S.3   222  CYS222     -0.0800
    101  N         27.9220    4.9080   23.6740 N.am  223  SER223     -0.1938
    102  CA        28.1450    4.9700   25.1190 C.3   223  SER223      0.2055
    103  C         27.8800    3.5790   25.7280 C.2   223  SER223      0.2642
    104  O         28.7520    3.0120   26.3900 O.2   223  SER223     -0.2714
    105  CB        27.2020    6.0160   25.7400 C.3   223  SER223      0.2130
    106  OG        27.4340    6.1100   27.1350 O.3   223  SER223     -0.2179
    107  N         26.6960    3.0200   25.4860 N.am  224  ALA224     -0.1977
    108  CA        26.4020    1.6650   25.9630 C.3   224  ALA224      0.1597
    109  C         26.7550    0.5740   24.9360 C.2   224  ALA224      0.2287
    110  O         26.7980   -0.6250   25.2680 O.2   224  ALA224     -0.2864
    111  CB        24.9260    1.5660   26.3070 C.3   224  ALA224      0.0319
    112  N         24.8790   -0.1560   22.2220 N.3   226  VAL226     -0.1231
    113  CA        23.6540   -0.7810   21.7220 C.3   226  VAL226      0.1692
    114  C         22.7320    0.0340   20.8230 C.2   226  VAL226      0.2593
    115  O         22.3120   -0.4670   19.7820 O.2   226  VAL226     -0.2718
    116  CB        22.8270   -1.4110   22.9020 C.3   226  VAL226      0.0266
    117  CG1       23.6520   -2.4650   23.6460 C.3   226  VAL226      0.0020
    118  CG2       22.2570   -0.3540   23.8690 C.3   226  VAL226      0.0020
    119  N         22.3900    1.2590   21.2150 N.am  227  GLY227     -0.1942
    120  CA        21.4180    2.0550   20.4530 C.3   227  GLY227      0.2014
    121  C         21.9970    2.5660   19.1420 C.2   227  GLY227      0.2638
    122  O         21.6060    2.1500   18.0530 O.2   227  GLY227     -0.2714
    123  N         22.9550    3.4640   19.2760 N.am  228  ARG228     -0.1977
    124  CA        23.5120    4.1340   18.1240 C.3   228  ARG228      0.1597
    125  C         24.4120    3.1200   17.3960 C.2   228  ARG228      0.2287
    126  O         24.4240    3.0710   16.1730 O.2   228  ARG228     -0.2864
    127  CB        24.2010    5.4330   18.5400 C.3   228  ARG228      0.0334
    128  CG        23.1700    6.4560   19.0170 C.3   228  ARG228      0.0492
    129  CD        23.7840    7.6770   19.6870 C.3   228  ARG228      0.2205
    130  NE        24.3610    7.3310   20.9830 N.pl3 228  ARG228     -0.0865
    131  CZ        24.9990    8.1980   21.7790 C.cat 228  ARG228      0.5346
    132  NH1       25.1750    9.4590   21.3760 N.pl3 228  ARG228      0.1354
    133  NH2       25.4990    7.7950   22.9470 N.pl3 228  ARG228      0.1354
    134  N         19.4430   -4.9680   23.2970 N.3   263  HIS263     -0.1241
    135  CA        19.0490   -3.5910   22.9690 C.3   263  HIS263      0.1621
    136  C         19.5780   -3.0290   21.6610 C.2   263  HIS263      0.2264
    137  O         19.4450   -1.8240   21.4240 O.2   263  HIS263     -0.2867
    138  CB        19.3930   -2.6140   24.0950 C.3   263  HIS263      0.0745
    139  CG        18.5440   -2.7900   25.3150 C.ar  263  HIS263      0.0817
    140  ND1       17.1680   -2.8460   25.2600 N.ar  263  HIS263     -0.2268
    141  CD2       18.8770   -2.8980   26.6230 C.ar  263  HIS263      0.1154
    142  CE1       16.6930   -3.0030   26.4850 C.ar  263  HIS263      0.1986
    143  NE2       17.7070   -3.0390   27.3310 N.ar  263  HIS263     -0.2212
    144  N         17.9810    0.6960   19.9500 N.3   266  GLN266     -0.1245
    145  CA        17.4950    0.6780   21.3110 C.3   266  GLN266      0.1566
    146  C         16.1450    1.3820   21.4630 C.2   266  GLN266      0.2260
    147  O         15.5140    1.2410   22.5060 O.2   266  GLN266     -0.2867
    148  CB        18.5520    1.3470   22.1920 C.3   266  GLN266      0.0367
    149  CG        18.2290    1.3840   23.6780 C.3   266  GLN266      0.0905
    150  CD        17.8120    2.7550   24.1470 C.2   266  GLN266      0.2608
    151  OE1       18.4010    3.7630   23.7370 O.2   266  GLN266     -0.2717
    152  NE2       16.7880    2.8080   25.0130 N.am  266  GLN266     -0.0878
    153  N         14.6550    4.9520   16.4740 N.3   270  GLN270     -0.1245
    154  CA        15.7930    4.4330   15.6950 C.3   270  GLN270      0.1566
    155  C         15.3280    3.4110   14.6570 C.2   270  GLN270      0.2260
    156  O         15.8180    3.3780   13.5190 O.2   270  GLN270     -0.2867
    157  CB        16.8370    3.8110   16.6170 C.3   270  GLN270      0.0367
    158  CG        17.6600    4.9030   17.3330 C.3   270  GLN270      0.0905
    159  CD        18.4210    4.4120   18.5380 C.2   270  GLN270      0.2608
    160  OE1       18.3390    3.2360   18.9600 O.2   270  GLN270     -0.2717
    161  NE2       19.1670    5.3470   19.1530 N.am  270  GLN270     -0.0878
@<TRIPOS>BOND
     1   156   155    2
     2   155   154    1
     3   154   153    1
     4   154   157    1
     5   126   125    2
     6   157   158    1
     7   158   159    1
     8   125   124    1
     9   122   121    2
    10   124   127    1
    11   124   123    1
    12   159   160    2
    13   159   161   am
    14   127   128    1
    15   128   129    1
    16   121   123   am
    17   121   120    1
    18   129   130    1
    19   115   114    2
    20   144   145    1
    21   120   119    1
    22   114   119   am
    23   114   113    1
    24    99   100    1
    25    99    96    1
    26   130   131    2
    27    95    96    1
    28    87    88    2
    29    87    86    1
    30   145   146    1
    31   145   148    1
    32   132   131    1
    33    96    97    1
    34   137   136    2
    35   146   147    2
    36   136   135    1
    37   113   112    1
    38   113   116    1
    39   131   133    1
    40    77    78    1
    41   148   149    1
    42    86    85    1
    43    86    89    1
    44    85    79   am
    45    78    79    1
    46    78    81    1
    47    79    80    2
    48    97    98    2
    49    97   101   am
    50   116   117    1
    51   116   118    1
    52   135   134    1
    53   135   138    1
    54   101   102    1
    55   149   150    1
    56   151   150    2
    57    89    90    1
    58    84    82   ar
    59    81    82    1
    60   138   139    1
    61   150   152   am
    62    82    83   ar
    63   109   110    2
    64   109   108    1
    65    90    91   ar
    66    90    92   ar
    67    91    93   ar
    68   102   103    1
    69   102   105    1
    70   140   139   ar
    71   140   142   ar
    72   139   141   ar
    73   107   103   am
    74   107   108    1
    75   103   104    2
    76   105   106    1
    77   108   111    1
    78    55    56    1
    79    55    54    1
    80    92    94   ar
    81    93    94   ar
    82   142   143   ar
    83   141   143   ar
    84    72    73    1
    85    72    69    1
    86    76    75    1
    87    53    54    1
    88    53    52    1
    89    73    74    1
    90    46    44    1
    91    71    70    2
    92    48    49    1
    93    70    69    1
    94    47    45    1
    95    75    74    1
    96    69    68    1
    97    49    52    1
    98    49    50    1
    99    44    45    1
   100    44    41    1
   101    21    19   ar
   102    21    22   ar
   103    23    22    1
   104     8     7    1
   105     8     9    2
   106    41    42    1
   107    41    40    1
   108    42    43    2
   109    60    59    2
   110     7     6    1
   111    19    17   ar
   112    50    51    2
   113    11     9    1
   114    22    20   ar
   115     9    10    1
   116    35    34    2
   117    59    58    1
   118    17    16    1
   119    17    18   ar
   120    40    34   am
   121     5     6    1
   122     5     2    1
   123    20    18   ar
   124    57    58    1
   125    39    37   am
   126    34    33    1
   127    16    13    1
   128    61    58    1
   129    61    62    1
   130    37    38    2
   131    37    36    1
   132     1     2    1
   133     2     3    1
   134    12    13    1
   135    12     3   am
   136    15    14    2
   137    13    14    1
   138    62    63    1
   139    36    33    1
   140    33    32    1
   141     3     4    2
   142    14    24   am
   143    32    26   am
   144    63    64    1
   145    26    27    2
   146    26    25    1
   147    24    25    1
   148    64    65    2
   149    25    28    1
   150    65    67    1
   151    65    66    1
   152    28    29    1
   153    30    29    2
   154    29    31   am
