@<TRIPOS>MOLECULE
tmp/2h04A00.pdb
 130 125 0 0 0
SMALL
GASTEIGER

@<TRIPOS>ATOM
      1  N         -7.1020   21.8680   20.9390 N.3    56  TYR56      -0.1227
      2  CA        -7.9930   23.0240   20.8190 C.3    56  TYR56       0.1736
      3  C         -9.0390   22.7890   19.7370 C.2    56  TYR56       0.2595
      4  O         -8.7520   22.4620   18.5820 O.2    56  TYR56      -0.2718
      5  CB        -7.2010   24.2830   20.4310 C.3    56  TYR56       0.0548
      6  CG        -6.0790   24.5770   21.3980 C.ar   56  TYR56      -0.0200
      7  CD1       -6.3450   24.9870   22.7060 C.ar   56  TYR56      -0.0009
      8  CD2       -4.7530   24.4220   21.0000 C.ar   56  TYR56      -0.0009
      9  CE1       -5.3150   25.2740   23.5920 C.ar   56  TYR56       0.0417
     10  CE2       -3.7370   24.6910   21.8900 C.ar   56  TYR56       0.0417
     11  CZ        -4.0100   25.1310   23.1700 C.ar   56  TYR56       0.1957
     12  OH        -2.9340   25.3820   24.0110 O.3    56  TYR56      -0.2866
     13  N        -10.2840   22.9790   20.1230 N.am   57  ASN57      -0.1960
     14  CA       -11.3510   22.5710   19.2360 C.3    57  ASN57       0.1819
     15  C        -11.5200   23.4210   17.9770 C.2    57  ASN57       0.2621
     16  O        -12.2150   23.0020   17.0690 O.2    57  ASN57      -0.2715
     17  CB       -12.6510   22.3170   20.0040 C.3    57  ASN57       0.1195
     18  CG       -13.3080   23.5870   20.5000 C.2    57  ASN57       0.2630
     19  OD1      -12.7530   24.6750   20.4410 O.2    57  ASN57      -0.2716
     20  ND2      -14.5180   23.4440   21.0080 N.am   57  ASN57      -0.0877
     21  N        -10.8690   24.5740   17.9020 N.am   58  ASN58      -0.1958
     22  CA       -10.9120   25.3960   16.6970 C.3    58  ASN58       0.1819
     23  C         -9.6650   25.2810   15.8140 C.2    58  ASN58       0.2621
     24  O         -9.6120   25.8750   14.7420 O.2    58  ASN58      -0.2715
     25  CB       -11.1900   26.8590   17.0740 C.3    58  ASN58       0.1195
     26  CG       -10.0140   27.4970   17.7970 C.2    58  ASN58       0.2630
     27  OD1       -9.4700   26.8910   18.7050 O.2    58  ASN58      -0.2716
     28  ND2       -9.6040   28.6930   17.3840 N.am   58  ASN58      -0.0877
     29  N         -8.6690   24.5030   16.2360 N.am   59  ILE59      -0.1977
     30  CA        -7.4460   24.3190   15.4690 C.3    59  ILE59       0.1596
     31  C         -7.3560   22.8550   15.0330 C.2    59  ILE59       0.2287
     32  O         -6.8170   21.9970   15.7580 O.2    59  ILE59      -0.2864
     33  CB        -6.1960   24.6970   16.2940 C.3    59  ILE59       0.0276
     34  CG1       -6.3770   26.0250   17.0550 C.3    59  ILE59       0.0022
     35  CG2       -4.9490   24.6230   15.4320 C.3    59  ILE59       0.0022
     36  CD1       -6.3660   27.3100   16.1810 C.3    59  ILE59       0.0001
     37  N          0.5910   23.8050   27.7710 N.3   128  LYS128     -0.1245
     38  CA         0.7410   24.0850   26.3460 C.3   128  LYS128      0.1561
     39  C          1.0790   22.8100   25.5640 C.2   128  LYS128      0.2260
     40  O          0.7180   22.6600   24.3940 O.2   128  LYS128     -0.2867
     41  CB         1.8780   25.0960   26.1380 C.3   128  LYS128      0.0271
     42  CG         1.6190   26.4940   26.6870 C.3   128  LYS128      0.0035
     43  CD         0.2850   27.0770   26.2290 C.3   128  LYS128      0.0206
     44  CE         0.0990   28.4520   26.8420 C.3   128  LYS128      0.1093
     45  NZ        -0.8640   29.3310   26.1010 N.3   128  LYS128     -0.1314
     46  N          3.8500   32.0600   24.1530 N.3   182  ASP182     -0.1225
     47  CA         2.7130   31.7850   23.2820 C.3   182  ASP182      0.1805
     48  C          2.0380   33.0970   22.8480 C.2   182  ASP182      0.2597
     49  O          2.0040   34.0870   23.6060 O.2   182  ASP182     -0.2718
     50  CB         1.7310   30.8750   24.0090 C.3   182  ASP182      0.1424
     51  CG         0.7430   30.2090   23.0650 C.2   182  ASP182      0.3668
     52  OD1       -0.1860   29.5590   23.5680 O.co2 182  ASP182     -0.2456
     53  OD2        0.8600   30.3380   21.8300 O.co2 182  ASP182     -0.2456
     54  N          1.4860   33.0860   21.6370 N.am  183  HIS183     -0.1975
     55  CA         0.8590   34.2810   21.0420 C.3   183  HIS183      0.1656
     56  C          1.8250   35.4720   20.9880 C.2   183  HIS183      0.2291
     57  O          1.3960   36.6120   20.8110 O.2   183  HIS183     -0.2864
     58  CB        -0.4350   34.6730   21.7870 C.3   183  HIS183      0.0771
     59  CG        -1.3630   33.5270   22.0790 C.ar  183  HIS183      0.0820
     60  ND1       -2.0350   32.8340   21.0940 N.ar  183  HIS183     -0.2267
     61  CD2       -1.7420   32.9630   23.2540 C.ar  183  HIS183      0.1154
     62  CE1       -2.7700   31.8810   21.6430 C.ar  183  HIS183      0.1986
     63  NE2       -2.6040   31.9330   22.9550 N.ar  183  HIS183     -0.2212
     64  N          4.2020   23.6390   18.1450 N.3   216  CYS216     -0.1221
     65  CA         4.2400   24.4690   19.3360 C.3   216  CYS216      0.1808
     66  C          3.1050   23.9950   20.2260 C.2   216  CYS216      0.2602
     67  O          3.0180   22.7950   20.5580 O.2   216  CYS216     -0.2717
     68  CB         4.1740   25.9570   18.9850 C.3   216  CYS216      0.0970
     69  SG         2.9400   26.2750   17.7140 S.3   216  CYS216     -0.0800
     70  N          2.2290   24.9000   20.6400 N.am  217  SER217     -0.1938
     71  CA         1.0310   24.4110   21.3420 C.3   217  SER217      0.2055
     72  C         -0.1270   23.9790   20.4350 C.2   217  SER217      0.2642
     73  O         -0.5800   22.8270   20.4960 O.2   217  SER217     -0.2714
     74  CB         0.5260   25.4000   22.3950 C.3   217  SER217      0.2130
     75  OG        -0.4000   24.7490   23.2580 O.3   217  SER217     -0.2179
     76  N         -0.6370   24.9120   19.6330 N.am  218  ALA218     -0.1977
     77  CA        -1.7010   24.6110   18.6630 C.3   218  ALA218      0.1597
     78  C         -1.1380   24.1540   17.3080 C.2   218  ALA218      0.2287
     79  O         -1.8510   23.5870   16.4750 O.2   218  ALA218     -0.2864
     80  CB        -2.6130   25.8200   18.4640 C.3   218  ALA218      0.0319
     81  N          0.2410   26.4030   15.0860 N.3   220  VAL220     -0.1231
     82  CA        -0.1180   27.3970   14.0540 C.3   220  VAL220      0.1692
     83  C          0.6860   28.6890   14.1650 C.2   220  VAL220      0.2593
     84  O          1.3150   29.1360   13.2050 O.2   220  VAL220     -0.2718
     85  CB        -1.6600   27.6400   13.9090 C.3   220  VAL220      0.0266
     86  CG1       -2.3770   26.3530   13.5460 C.3   220  VAL220      0.0020
     87  CG2       -2.2870   28.1920   15.1760 C.3   220  VAL220      0.0020
     88  N          0.7150   29.3060   15.3380 N.am  221  GLY221     -0.1942
     89  CA         1.3780   30.6130   15.4020 C.3   221  GLY221      0.2014
     90  C          2.8880   30.5850   15.4060 C.2   221  GLY221      0.2638
     91  O          3.5430   30.9820   14.4450 O.2   221  GLY221     -0.2714
     92  N          3.4600   30.1110   16.5010 N.am  222  ARG222     -0.1977
     93  CA         4.9030   29.9740   16.5830 C.3   222  ARG222      0.1597
     94  C          5.3790   28.9610   15.5550 C.2   222  ARG222      0.2287
     95  O          6.4400   29.1160   14.9560 O.2   222  ARG222     -0.2864
     96  CB         5.2970   29.6270   18.0210 C.3   222  ARG222      0.0334
     97  CG         4.8220   30.6980   19.0190 C.3   222  ARG222      0.0492
     98  CD         5.0170   30.2170   20.4430 C.3   222  ARG222      0.2205
     99  NE         3.9270   29.3540   20.9020 N.pl3 222  ARG222     -0.0865
    100  CZ         3.9020   28.7780   22.1020 C.cat 222  ARG222      0.5346
    101  NH1        4.9220   28.9880   22.9380 N.pl3 222  ARG222      0.1354
    102  NH2        2.8790   27.9850   22.4390 N.pl3 222  ARG222      0.1354
    103  N         -4.6170   29.5750   10.6430 N.3   257  HIS257     -0.1241
    104  CA        -3.9030   30.4000   11.6270 C.3   257  HIS257      0.1621
    105  C         -2.3780   30.4180   11.6690 C.2   257  HIS257      0.2264
    106  O         -1.7690   30.9460   12.6150 O.2   257  HIS257     -0.2867
    107  CB        -4.4320   30.1940   13.0400 C.3   257  HIS257      0.0745
    108  CG        -5.8620   30.5950   13.2230 C.ar  257  HIS257      0.0817
    109  ND1       -6.3040   31.8870   13.0390 N.ar  257  HIS257     -0.2268
    110  CD2       -6.9460   29.8740   13.6050 C.ar  257  HIS257      0.1154
    111  CE1       -7.5980   31.9460   13.3080 C.ar  257  HIS257      0.1986
    112  NE2       -8.0130   30.7360   13.6430 N.ar  257  HIS257     -0.2212
    113  N         -0.0620   33.5190   13.6860 N.3   260  GLN260     -0.1245
    114  CA        -1.4100   33.6610   14.2550 C.3   260  GLN260      0.1566
    115  C         -1.6940   35.0970   14.7410 C.2   260  GLN260      0.2260
    116  O         -2.8480   35.4660   14.9760 O.2   260  GLN260     -0.2867
    117  CB        -1.6280   32.6530   15.3960 C.3   260  GLN260      0.0367
    118  CG        -2.9540   32.7510   16.1320 C.3   260  GLN260      0.0905
    119  CD        -2.7670   33.3860   17.5050 C.2   260  GLN260      0.2608
    120  OE1       -1.7280   33.2010   18.1550 O.2   260  GLN260     -0.2717
    121  NE2       -3.7740   34.1320   17.9540 N.am  260  GLN260     -0.0878
    122  N          3.4950   38.6370   14.9860 N.3   264  GLN264     -0.1245
    123  CA         4.3450   37.5670   14.4750 C.3   264  GLN264      0.1566
    124  C          4.6490   37.8750   13.0200 C.2   264  GLN264      0.2260
    125  O          5.7880   37.7290   12.5860 O.2   264  GLN264     -0.2867
    126  CB         3.6620   36.2060   14.6210 C.3   264  GLN264      0.0367
    127  CG         3.6280   35.7300   16.0880 C.3   264  GLN264      0.0905
    128  CD         2.7130   34.5650   16.3860 C.2   264  GLN264      0.2608
    129  OE1        1.9110   34.1440   15.5550 O.2   264  GLN264     -0.2717
    130  NE2        2.8390   34.0280   17.5970 N.am  264  GLN264     -0.0878
@<TRIPOS>BOND
     1   103   104    1
     2   104   105    1
     3   104   107    1
     4   105   106    2
     5   125   124    2
     6   124   123    1
     7   109   108   ar
     8   109   111   ar
     9   107   108    1
    10    84    83    2
    11   108   110   ar
    12   111   112   ar
    13    86    85    1
    14   110   112   ar
    15   113   114    1
    16    85    82    1
    17    85    87    1
    18    82    83    1
    19    82    81    1
    20    83    88   am
    21   114   115    1
    22   114   117    1
    23    91    90    2
    24   123   126    1
    25   123   122    1
    26   126   127    1
    27   115   116    2
    28    24    23    2
    29    95    94    2
    30    31    30    1
    31    31    32    2
    32    88    89    1
    33   117   118    1
    34    89    90    1
    35    90    92   am
    36    35    33    1
    37    30    29    1
    38    30    33    1
    39    94    93    1
    40   129   128    2
    41    23    29   am
    42    23    22    1
    43   127   128    1
    44   118   119    1
    45    36    34    1
    46    33    34    1
    47   128   130   am
    48    79    78    2
    49    92    93    1
    50    93    96    1
    51    22    25    1
    52    22    21    1
    53    16    15    2
    54    25    26    1
    55    78    77    1
    56    28    26   am
    57   119   121   am
    58   119   120    2
    59    69    68    1
    60    26    27    2
    61    21    15   am
    62    15    14    1
    63    96    97    1
    64    64    65    1
    65    80    77    1
    66     4     3    2
    67    77    76    1
    68    68    65    1
    69    97    98    1
    70    14    17    1
    71    14    13    1
    72    65    66    1
    73    76    72   am
    74     3    13   am
    75     3     2    1
    76    17    18    1
    77    66    67    2
    78    66    70   am
    79     5     2    1
    80     5     6    1
    81    72    73    2
    82    72    71    1
    83    19    18    2
    84    98    99    1
    85    18    20   am
    86    70    71    1
    87    57    56    2
    88     2     1    1
    89    99   100    2
    90    56    55    1
    91     8     6   ar
    92     8    10   ar
    93    55    54    1
    94    55    58    1
    95    60    62   ar
    96    60    59   ar
    97    71    74    1
    98     6     7   ar
    99    54    48   am
   100    62    63   ar
   101    58    59    1
   102    53    51   ar
   103    10    11   ar
   104    59    61   ar
   105   100   102    1
   106   100   101    1
   107    74    75    1
   108     7     9   ar
   109    48    47    1
   110    48    49    2
   111    63    61   ar
   112    51    52   ar
   113    51    50    1
   114    11     9   ar
   115    11    12    1
   116    47    50    1
   117    47    46    1
   118    40    39    2
   119    39    38    1
   120    45    44    1
   121    41    38    1
   122    41    42    1
   123    43    42    1
   124    43    44    1
   125    38    37    1
