@<TRIPOS>MOLECULE
tmp/2h0uA00.pdb
 116 111 0 0 0
SMALL
GASTEIGER

@<TRIPOS>ATOM
      1  N          8.4400    3.6370   29.1660 N.3    12  ARG12      -0.1231
      2  CA         8.5790    4.8930   28.4310 C.3    12  ARG12       0.1694
      3  C          9.2360    5.8770   29.4080 C.2    12  ARG12       0.2592
      4  O          8.6410    6.2260   30.4110 O.2    12  ARG12      -0.2718
      5  CB         7.1770    5.4110   28.0140 C.3    12  ARG12       0.0321
      6  CG         7.1470    6.3910   26.7770 C.3    12  ARG12       0.0489
      7  CD         7.6750    7.8280   27.0820 C.3    12  ARG12       0.2205
      8  NE         7.2540    8.2670   28.4150 N.pl3  12  ARG12      -0.0865
      9  CZ         7.9200    9.1060   29.2020 C.cat  12  ARG12       0.5346
     10  NH1        9.0370    9.6770   28.7710 N.pl3  12  ARG12       0.1354
     11  NH2        7.4660    9.3460   30.4310 N.pl3  12  ARG12       0.1354
     12  N         10.4670    6.3000   29.1320 N.am   13  PHE13      -0.1962
     13  CA        11.1170    7.2940   29.9700 C.3    13  PHE13       0.1771
     14  C         11.9390    8.1760   29.0500 C.2    13  PHE13       0.2619
     15  O         12.0980    7.8760   27.8730 O.2    13  PHE13      -0.2715
     16  CB        12.0220    6.6360   31.0330 C.3    13  PHE13       0.0574
     17  CG        13.3380    6.1400   30.4890 C.ar   13  PHE13      -0.0200
     18  CD1       14.5400    6.8150   30.7680 C.ar   13  PHE13      -0.0042
     19  CD2       13.3840    4.9640   29.7100 C.ar   13  PHE13      -0.0042
     20  CE1       15.7570    6.3190   30.2720 C.ar   13  PHE13      -0.0003
     21  CE2       14.5880    4.5030   29.1820 C.ar   13  PHE13      -0.0003
     22  CZ        15.7670    5.1610   29.4630 C.ar   13  PHE13      -0.0000
     23  N         12.4530    9.2710   29.5860 N.am   14  ALA14      -0.1977
     24  CA        13.2170   10.1920   28.7620 C.3    14  ALA14       0.1597
     25  C         14.6490    9.6600   28.6300 C.2    14  ALA14       0.2287
     26  O         15.5370    9.9010   29.4940 O.2    14  ALA14      -0.2864
     27  CB        13.1800   11.6200   29.3470 C.3    14  ALA14       0.0319
     28  N         18.2760    9.4680   27.6050 N.3    16  LYS16      -0.1245
     29  CA        19.3190   10.4580   27.2610 C.3    16  LYS16       0.1561
     30  C         20.5730    9.8470   26.6400 C.2    16  LYS16       0.2260
     31  O         21.3920   10.5800   26.0520 O.2    16  LYS16      -0.2867
     32  CB        19.7640   11.2740   28.4900 C.3    16  LYS16       0.0271
     33  CG        18.7030   12.1400   29.2290 C.3    16  LYS16       0.0035
     34  CD        17.4510   12.5000   28.4260 C.3    16  LYS16       0.0206
     35  CE        16.3810   13.0850   29.3700 C.3    16  LYS16       0.1093
     36  NZ        16.9070   14.0720   30.4030 N.3    16  LYS16      -0.1314
     37  N          1.5480   18.1490   20.2390 N.3   119  TYR119     -0.1241
     38  CA         2.0400   17.4110   21.4320 C.3   119  TYR119      0.1605
     39  C          1.3290   16.0640   21.5130 C.2   119  TYR119      0.2264
     40  O          1.9080   15.0970   21.9780 O.2   119  TYR119     -0.2867
     41  CB         1.8850   18.2260   22.7230 C.3   119  TYR119      0.0534
     42  CG         3.0580   19.1920   22.9840 C.ar  119  TYR119     -0.0201
     43  CD1        3.4040   20.1600   22.0330 C.ar  119  TYR119     -0.0009
     44  CD2        3.8400   19.1010   24.1500 C.ar  119  TYR119     -0.0009
     45  CE1        4.4980   21.0600   22.2250 C.ar  119  TYR119      0.0417
     46  CE2        4.9180   20.0060   24.3780 C.ar  119  TYR119      0.0417
     47  CZ         5.2270   20.9660   23.3850 C.ar  119  TYR119      0.1957
     48  OH         6.2550   21.8500   23.5170 O.3   119  TYR119     -0.2866
     49  N         12.9770   10.5790   23.5670 N.3   132  CYS132     -0.1221
     50  CA        13.0540   11.7070   24.4710 C.3   132  CYS132      0.1794
     51  C         12.3790   12.9010   23.8110 C.2   132  CYS132      0.2443
     52  O         12.7170   13.2580   22.6710 O.2   132  CYS132     -0.2733
     53  CB        14.5110   12.0400   24.8580 C.3   132  CYS132      0.0970
     54  SG        14.5750   13.3140   26.2140 S.3   132  CYS132     -0.0800
     55  N         11.3880   13.5060   24.5070 N.am  133  PRO133     -0.2718
     56  CA        10.7580   14.7460   24.0170 C.3   133  PRO133      0.1535
     57  C         11.7770   15.8560   24.2370 C.2   133  PRO133      0.2598
     58  O         12.5400   15.7950   25.2110 O.2   133  PRO133     -0.2715
     59  CB         9.5870   14.9670   24.9820 C.3   133  PRO133      0.0310
     60  CG         9.5870   13.8090   25.9390 C.3   133  PRO133      0.0237
     61  CD        10.9030   13.1270   25.8530 C.3   133  PRO133      0.0939
     62  N         11.7720   16.8620   23.3690 N.am  134  ILE134     -0.1964
     63  CA        12.8270   17.8690   23.3850 C.3   134  ILE134      0.1727
     64  C         12.2450   19.2670   23.1090 C.2   134  ILE134      0.2616
     65  O         11.7330   19.5310   22.0310 O.2   134  ILE134     -0.2715
     66  CB        13.9730   17.5610   22.3390 C.3   134  ILE134      0.0290
     67  CG1       14.7140   16.2440   22.6260 C.3   134  ILE134      0.0022
     68  CG2       14.9770   18.7610   22.2520 C.3   134  ILE134      0.0023
     69  CD1       15.5850   15.7570   21.4350 C.3   134  ILE134      0.0001
     70  N         12.3360   20.1460   24.1110 N.am  135  GLU135     -0.1963
     71  CA        12.0260   21.5600   23.9590 C.3   135  GLU135      0.1733
     72  C         13.2900   22.4280   24.0550 C.2   135  GLU135      0.2616
     73  O         13.2230   23.6140   23.7560 O.2   135  GLU135     -0.2715
     74  CB        11.0340   22.0210   25.0590 C.3   135  GLU135      0.0429
     75  CG         9.5550   21.6380   24.7860 C.3   135  GLU135      0.1163
     76  CD         8.6330   22.0870   25.9380 C.2   135  GLU135      0.3649
     77  OE1        9.1330   22.7350   26.8810 O.co2 135  GLU135     -0.2457
     78  OE2        7.4130   21.8420   25.8610 O.co2 135  GLU135     -0.2457
     79  N         14.4030   21.8370   24.4720 N.am  136  GLY136     -0.1955
     80  CA        15.6560   22.5800   24.7770 C.3   136  GLY136      0.1869
     81  C         16.4880   23.0140   23.5580 C.2   136  GLY136      0.2309
     82  O         17.5730   22.4780   23.2870 O.2   136  GLY136     -0.2863
     83  N          7.9530   21.5440   18.6020 N.3   161  VAL161     -0.1245
     84  CA         8.6480   20.7230   19.6170 C.3   161  VAL161      0.1561
     85  C          9.5000   19.7230   18.8350 C.2   161  VAL161      0.2260
     86  O          9.3690   19.6460   17.5910 O.2   161  VAL161     -0.2867
     87  CB         7.6310   20.0450   20.5920 C.3   161  VAL161      0.0252
     88  CG1        6.7040   19.0290   19.8530 C.3   161  VAL161      0.0019
     89  CG2        8.3190   19.4690   21.8550 C.3   161  VAL161      0.0019
     90  N         15.2180    5.1190   33.7650 N.3   172  THR172     -0.1218
     91  CA        15.2350    6.0580   34.9010 C.3   172  THR172      0.1862
     92  C         13.9420    5.8560   35.6900 C.2   172  THR172      0.2287
     93  O         12.8670    6.0060   35.1030 O.2   172  THR172     -0.2866
     94  CB        15.2840    7.5140   34.3630 C.3   172  THR172      0.1770
     95  OG1       16.4060    7.6370   33.4810 O.3   172  THR172     -0.2211
     96  CG2       15.4080    8.5740   35.5060 C.3   172  THR172      0.0375
     97  N         10.6230    6.5200   37.7820 N.3   174  LYS174     -0.1245
     98  CA         9.7220    7.6670   37.7580 C.3   174  LYS174      0.1561
     99  C          9.7480    8.3900   39.0920 C.2   174  LYS174      0.2260
    100  O          9.7730    7.7450   40.1500 O.2   174  LYS174     -0.2867
    101  CB         8.2920    7.2000   37.4720 C.3   174  LYS174      0.0271
    102  CG         8.0900    6.7600   36.0730 C.3   174  LYS174      0.0035
    103  CD         7.7530    7.9700   35.1750 C.3   174  LYS174      0.0206
    104  CE         7.5500    7.5540   33.6920 C.3   174  LYS174      0.1093
    105  NZ         8.8860    7.2540   33.0010 N.3   174  LYS174     -0.1314
    106  N          7.1840   11.3330   40.5310 N.3   176  ARG176     -0.1245
    107  CA         5.9680   12.1210   40.2300 C.3   176  ARG176      0.1563
    108  C          5.2960   12.5340   41.5220 C.2   176  ARG176      0.2260
    109  O          5.4950   11.8790   42.5560 O.2   176  ARG176     -0.2867
    110  CB         4.9590   11.2720   39.4100 C.3   176  ARG176      0.0307
    111  CG         5.3590   10.9440   37.9470 C.3   176  ARG176      0.0489
    112  CD         5.5350   12.2060   37.0850 C.3   176  ARG176      0.2205
    113  NE         5.7770   11.8420   35.6810 N.pl3 176  ARG176     -0.0865
    114  CZ         6.9580   11.4870   35.1860 C.cat 176  ARG176      0.5346
    115  NH1        8.0480   11.5050   35.9390 N.pl3 176  ARG176      0.1354
    116  NH2        7.0490   11.1330   33.9170 N.pl3 176  ARG176      0.1354
@<TRIPOS>BOND
     1    86    85    2
     2    83    84    1
     3    85    84    1
     4    84    87    1
     5    88    87    1
     6    37    38    1
     7    87    89    1
     8    38    39    1
     9    38    41    1
    10    69    67    1
    11    39    40    2
    12    65    64    2
    13    43    45   ar
    14    43    42   ar
    15    45    47   ar
    16    68    66    1
    17    66    67    1
    18    66    63    1
    19    52    51    2
    20    41    42    1
    21    42    44   ar
    22    64    63    1
    23    64    70   am
    24    82    81    2
    25    62    63    1
    26    62    57   am
    27    47    48    1
    28    47    46   ar
    29    81    80    1
    30    49    50    1
    31    73    72    2
    32    51    50    1
    33    51    55   am
    34    71    72    1
    35    71    70    1
    36    71    74    1
    37    56    57    1
    38    56    55    1
    39    56    59    1
    40    72    79   am
    41    44    46   ar
    42    57    58    2
    43    50    53    1
    44    79    80    1
    45    55    61    1
    46    75    74    1
    47    75    76    1
    48    53    54    1
    49    59    60    1
    50    61    60    1
    51    78    76   ar
    52    76    77   ar
    53    31    30    2
    54    30    29    1
    55     6     7    1
    56     6     5    1
    57     7     8    1
    58    29    28    1
    59    29    32    1
    60    15    14    2
    61     5     2    1
    62     8     9    2
    63    34    33    1
    64    34    35    1
    65     2     1    1
    66     2     3    1
    67    32    33    1
    68    25    24    1
    69    25    26    2
    70    24    27    1
    71    24    23    1
    72    10     9    1
    73    14    23   am
    74    14    13    1
    75    12     3   am
    76    12    13    1
    77    21    22   ar
    78    21    19   ar
    79     9    11    1
    80    35    36    1
    81     3     4    2
    82    22    20   ar
    83    19    17   ar
    84    13    16    1
    85    20    18   ar
    86    17    18   ar
    87    17    16    1
    88   105   104    1
    89    95    94    1
    90   104   103    1
    91    90    91    1
    92   116   114    1
    93    94    91    1
    94    94    96    1
    95    91    92    1
    96    93    92    2
    97   103   102    1
    98   114   113    2
    99   114   115    1
   100   113   112    1
   101   102   101    1
   102   112   111    1
   103   101    98    1
   104    98    97    1
   105    98    99    1
   106   111   110    1
   107    99   100    2
   108   110   107    1
   109   107   106    1
   110   107   108    1
   111   108   109    2
