@<TRIPOS>MOLECULE
tmp/2h11B00.pdb
 222 222 0 0 0
SMALL
GASTEIGER

@<TRIPOS>ATOM
      1  N         79.4960   26.3900   64.4350 N.3    10  LEU10      -0.1245
      2  CA        78.9330   27.1280   63.3090 C.3    10  LEU10       0.1561
      3  C         79.9960   28.0170   62.6450 C.2    10  LEU10       0.2260
      4  O         80.0060   28.1980   61.4160 O.2    10  LEU10      -0.2867
      5  CB        77.7620   27.9760   63.7790 C.3    10  LEU10       0.0270
      6  CG        76.5400   27.1960   64.2580 C.3    10  LEU10       0.0019
      7  CD1       75.4390   28.1850   64.6350 C.3    10  LEU10       0.0001
      8  CD2       76.0690   26.2410   63.1720 C.3    10  LEU10       0.0001
      9  N         82.0020   26.0530   60.1210 N.3    13  TRP13      -0.1241
     10  CA        81.3090   25.8690   58.8590 C.3    13  TRP13       0.1605
     11  C         81.3060   27.1840   58.0650 C.2    13  TRP13       0.2264
     12  O         81.4770   27.1870   56.8450 O.2    13  TRP13      -0.2867
     13  CB        79.8700   25.4110   59.0990 C.3    13  TRP13       0.0550
     14  CG        79.7780   23.9480   59.3930 C.ar   13  TRP13       0.0003
     15  CD1       79.4780   23.3640   60.5900 C.ar   13  TRP13       0.0946
     16  CD2       79.9550   22.8780   58.4550 C.ar   13  TRP13       0.0152
     17  NE1       79.4480   21.9860   60.4540 N.ar   13  TRP13      -0.2442
     18  CE2       79.7370   21.6650   59.1550 C.ar   13  TRP13       0.0810
     19  CE3       80.2700   22.8290   57.0940 C.ar   13  TRP13       0.0012
     20  CZ2       79.8270   20.4100   58.5340 C.ar   13  TRP13       0.0191
     21  CZ3       80.3580   21.5740   56.4730 C.ar   13  TRP13       0.0001
     22  CH2       80.1360   20.3830   57.2010 C.ar   13  TRP13       0.0015
     23  N         83.2010   28.2790   53.9520 N.3    17  TRP17      -0.1241
     24  CA        82.6140   29.0410   52.8650 C.3    17  TRP17       0.1605
     25  C         83.4860   30.2560   52.5230 C.2    17  TRP17       0.2264
     26  O         83.7730   30.5050   51.3540 O.2    17  TRP17      -0.2867
     27  CB        81.1930   29.4940   53.2370 C.3    17  TRP17       0.0550
     28  CG        80.1660   28.3900   53.1020 C.ar   17  TRP17       0.0003
     29  CD1       79.7260   27.5440   54.0730 C.ar   17  TRP17       0.0946
     30  CD2       79.5050   28.0010   51.9010 C.ar   17  TRP17       0.0152
     31  NE1       78.8260   26.6410   53.5530 N.ar   17  TRP17      -0.2442
     32  CE2       78.6720   26.9020   52.2190 C.ar   17  TRP17       0.0810
     33  CE3       79.5370   28.4740   50.5840 C.ar   17  TRP17       0.0012
     34  CZ2       77.8780   26.2680   51.2630 C.ar   17  TRP17       0.0191
     35  CZ3       78.7450   27.8390   49.6300 C.ar   17  TRP17       0.0001
     36  CH2       77.9280   26.7480   49.9790 C.ar   17  TRP17       0.0015
     37  N         82.0490   19.7080   48.7710 N.3    24  PHE24      -0.1227
     38  CA        80.8370   18.8860   48.8620 C.3    24  PHE24       0.1736
     39  C         79.8120   19.2620   47.7830 C.2    24  PHE24       0.2595
     40  O         78.9580   18.4550   47.4120 O.2    24  PHE24      -0.2718
     41  CB        80.1960   19.0370   50.2490 C.3    24  PHE24       0.0547
     42  CG        80.0480   20.4730   50.7030 C.ar   24  PHE24      -0.0202
     43  CD1       79.0800   21.3060   50.1480 C.ar   24  PHE24      -0.0042
     44  CD2       80.8900   20.9890   51.6850 C.ar   24  PHE24      -0.0042
     45  CE1       78.9500   22.6360   50.5660 C.ar   24  PHE24      -0.0003
     46  CE2       80.7770   22.3130   52.1160 C.ar   24  PHE24      -0.0003
     47  CZ        79.8010   23.1430   51.5560 C.ar   24  PHE24      -0.0000
     48  N         79.9140   20.4900   47.2840 N.am   25  HIS25      -0.1961
     49  CA        78.9890   21.0170   46.2870 C.3    25  HIS25       0.1787
     50  C         79.0790   20.3430   44.9240 C.2    25  HIS25       0.2620
     51  O         80.1490   20.2720   44.3220 O.2    25  HIS25      -0.2715
     52  CB        79.2120   22.5300   46.1110 C.3    25  HIS25       0.0785
     53  CG        78.2580   23.1660   45.1530 C.ar   25  HIS25       0.0821
     54  ND1       76.9000   23.1940   45.3770 N.ar   25  HIS25      -0.2267
     55  CD2       78.4520   23.7300   43.9360 C.ar   25  HIS25       0.1154
     56  CE1       76.2960   23.7420   44.3370 C.ar   25  HIS25       0.1986
     57  NE2       77.2150   24.0740   43.4470 N.ar   25  HIS25      -0.2212
     58  N         77.9430   19.8590   44.4300 N.am   26  GLN26      -0.1977
     59  CA        77.9010   19.2100   43.1190 C.3    26  GLN26       0.1601
     60  C         77.2460   20.1770   42.1150 C.2    26  GLN26       0.2287
     61  O         76.0340   20.3960   42.1480 O.2    26  GLN26      -0.2864
     62  CB        77.0970   17.9100   43.2310 C.3    26  GLN26       0.0394
     63  CG        77.5240   17.0700   44.4240 C.3    26  GLN26       0.0908
     64  CD        76.9200   15.6780   44.4260 C.2    26  GLN26       0.2608
     65  OE1       75.7130   15.5080   44.6090 O.2    26  GLN26      -0.2717
     66  NE2       77.7650   14.6690   44.2140 N.am   26  GLN26      -0.0878
     67  N         64.8150   21.9320   52.4140 N.3    51  PHE51      -0.1228
     68  CA        66.2280   21.5860   52.2200 C.3    51  PHE51       0.1721
     69  C         67.0750   21.9480   53.4480 C.2    51  PHE51       0.2437
     70  O         67.5590   23.0710   53.5640 O.2    51  PHE51      -0.2733
     71  CB        66.8190   22.3640   51.0360 C.3    51  PHE51       0.0547
     72  CG        66.5010   21.7890   49.6970 C.ar   51  PHE51      -0.0202
     73  CD1       65.2100   21.8020   49.2020 C.ar   51  PHE51      -0.0042
     74  CD2       67.5160   21.2510   48.9110 C.ar   51  PHE51      -0.0042
     75  CE1       64.9250   21.2890   47.9390 C.ar   51  PHE51      -0.0003
     76  CE2       67.2310   20.7440   47.6540 C.ar   51  PHE51      -0.0003
     77  CZ        65.9330   20.7630   47.1740 C.ar   51  PHE51      -0.0000
     78  N         67.2770   21.0090   54.3780 N.am   52  PRO52      -0.2718
     79  CA        68.0990   21.3480   55.5490 C.3    52  PRO52       0.1535
     80  C         69.5890   21.4830   55.1810 C.2    52  PRO52       0.2598
     81  O         70.0890   20.7540   54.3300 O.2    52  PRO52      -0.2715
     82  CB        67.8610   20.1750   56.4880 C.3    52  PRO52       0.0310
     83  CG        67.6180   19.0280   55.5160 C.3    52  PRO52       0.0237
     84  CD        66.6700   19.6770   54.5230 C.3    52  PRO52       0.0939
     85  N         70.2790   22.4270   55.8190 N.am   53  LEU53      -0.1964
     86  CA        71.7030   22.6580   55.5780 C.3    53  LEU53       0.1728
     87  C         71.9390   22.6690   54.0840 C.2    53  LEU53       0.2616
     88  O         72.7950   21.9380   53.5540 O.2    53  LEU53      -0.2715
     89  CB        72.5420   21.5610   56.2530 C.3    53  LEU53       0.0311
     90  CG        72.7220   21.6650   57.7800 C.3    53  LEU53       0.0022
     91  CD1       71.3550   21.5710   58.4980 C.3    53  LEU53       0.0001
     92  CD2       73.6770   20.5660   58.2550 C.3    53  LEU53       0.0001
     93  N         71.1630   23.5100   53.3880 N.am   54  CYS54      -0.1954
     94  CA        71.1540   23.5830   51.9310 C.3    54  CYS54       0.1843
     95  C         72.3820   24.1300   51.1790 C.2    54  CYS54       0.2626
     96  O         72.5010   23.8780   49.9950 O.2    54  CYS54      -0.2714
     97  CB        69.9140   24.3780   51.4920 C.3    54  CYS54       0.0997
     98  SG        69.8680   26.0940   52.1150 S.3    54  CYS54      -0.0797
     99  N         73.3010   24.8630   51.8080 N.am   55  GLY55      -0.1940
    100  CA        74.4320   25.3810   51.0410 C.3    55  GLY55       0.2014
    101  C         73.8740   26.0940   49.8170 C.2    55  GLY55       0.2639
    102  O         72.9390   26.9060   49.9310 O.2    55  GLY55      -0.2714
    103  N         74.4140   25.7930   48.6400 N.am   56  LYS56      -0.1963
    104  CA        73.9060   26.3920   47.4060 C.3    56  LYS56       0.1728
    105  C         73.3960   25.3220   46.4280 C.2    56  LYS56       0.2616
    106  O         73.4760   25.4710   45.2080 O.2    56  LYS56      -0.2715
    107  CB        74.9870   27.2660   46.7440 C.3    56  LYS56       0.0311
    108  CG        76.3340   26.5780   46.5270 C.3    56  LYS56       0.0038
    109  CD        77.3650   27.6030   46.0300 C.3    56  LYS56       0.0206
    110  CE        78.6710   26.9420   45.6020 C.3    56  LYS56       0.1093
    111  NZ        79.5290   27.9470   44.8910 N.3    56  LYS56      -0.1314
    112  N         72.8440   24.2520   46.9950 N.am   57  ALA57      -0.1977
    113  CA        72.3260   23.1220   46.2270 C.3    57  ALA57       0.1597
    114  C         71.5140   23.5470   45.0010 C.2    57  ALA57       0.2287
    115  O         70.4970   24.2300   45.1270 O.2    57  ALA57      -0.2864
    116  CB        71.4760   22.2230   47.1410 C.3    57  ALA57       0.0319
    117  N         69.7660   21.7380   43.3060 N.3    59  GLU59      -0.1245
    118  CA        68.5140   21.0050   43.2910 C.3    59  GLU59       0.1567
    119  C         67.3230   21.8460   43.7300 C.2    59  GLU59       0.2260
    120  O         66.1770   21.5420   43.3690 O.2    59  GLU59      -0.2867
    121  CB        68.6210   19.7380   44.1410 C.3    59  GLU59       0.0388
    122  CG        69.6860   18.7680   43.6290 C.3    59  GLU59       0.1160
    123  CD        71.0610   19.0080   44.2460 C.2    59  GLU59       0.3649
    124  OE1       71.2530   20.0270   44.9350 O.co2  59  GLU59      -0.2457
    125  OE2       71.9530   18.1720   44.0410 O.co2  59  GLU59      -0.2457
    126  N         67.5900   26.0420   54.8510 N.3    73  VAL73      -0.1231
    127  CA        68.1830   26.6750   56.0070 C.3    73  VAL73       0.1692
    128  C         69.6780   26.4610   55.8730 C.2    73  VAL73       0.2592
    129  O         70.1570   25.3380   55.6420 O.2    73  VAL73      -0.2718
    130  CB        67.6450   26.1010   57.3440 C.3    73  VAL73       0.0266
    131  CG1       68.0020   24.6230   57.4740 C.3    73  VAL73       0.0020
    132  CG2       68.2270   26.8980   58.5230 C.3    73  VAL73       0.0020
    133  N         70.4160   27.5500   55.9840 N.am   74  GLU74      -0.1966
    134  CA        71.8720   27.4820   55.8500 C.3    74  GLU74       0.1733
    135  C         72.4870   28.5650   56.7240 C.2    74  GLU74       0.2616
    136  O         72.0830   29.7290   56.6590 O.2    74  GLU74      -0.2715
    137  CB        72.2600   27.7110   54.3810 C.3    74  GLU74       0.0429
    138  CG        73.7420   28.0210   54.1560 C.3    74  GLU74       0.1163
    139  CD        74.6550   26.9030   54.6270 C.2    74  GLU74       0.3649
    140  OE1       74.4120   25.7350   54.2310 O.co2  74  GLU74      -0.2457
    141  OE2       75.6120   27.1870   55.3850 O.co2  74  GLU74      -0.2457
    142  N         73.4700   28.1920   57.5300 N.am   75  ILE75      -0.1977
    143  CA        74.0840   29.1570   58.4160 C.3    75  ILE75       0.1596
    144  C         74.9780   30.1800   57.6810 C.2    75  ILE75       0.2287
    145  O         75.1860   31.2830   58.1780 O.2    75  ILE75      -0.2864
    146  CB        74.8990   28.4320   59.5590 C.3    75  ILE75       0.0276
    147  CG1       75.2630   29.4210   60.6710 C.3    75  ILE75       0.0022
    148  CG2       76.1590   27.8100   59.0070 C.3    75  ILE75       0.0022
    149  CD1       74.0190   30.0080   61.4090 C.3    75  ILE75       0.0001
    150  N         70.1740   30.9080   59.3830 N.3   117  CYS117     -0.1221
    151  CA        70.2570   30.6730   60.8210 C.3   117  CYS117      0.1808
    152  C         70.5780   29.1920   61.0310 C.2   117  CYS117      0.2602
    153  O         70.8110   28.4740   60.0750 O.2   117  CYS117     -0.2717
    154  CB        68.9210   31.0150   61.5040 C.3   117  CYS117      0.0970
    155  SG        67.4530   29.9820   61.0540 S.3   117  CYS117     -0.0800
    156  N         70.5790   28.7370   62.2750 N.am  118  SER118     -0.1938
    157  CA        70.8650   27.3320   62.5310 C.3   118  SER118      0.2055
    158  C         69.6030   26.4960   62.4280 C.2   118  SER118      0.2643
    159  O         68.5140   26.9540   62.7660 O.2   118  SER118     -0.2714
    160  CB        71.4690   27.1520   63.9250 C.3   118  SER118      0.2130
    161  OG        71.5850   25.7710   64.2380 O.3   118  SER118     -0.2179
    162  N         69.7580   25.2600   61.9650 N.am  119  ILE119     -0.1963
    163  CA        68.6270   24.3510   61.8460 C.3   119  ILE119      0.1727
    164  C         67.9540   24.1960   63.2300 C.2   119  ILE119      0.2616
    165  O         66.7270   24.0380   63.3270 O.2   119  ILE119     -0.2715
    166  CB        69.1100   22.9540   61.3230 C.3   119  ILE119      0.0290
    167  CG1       67.9160   22.0510   61.0540 C.3   119  ILE119      0.0022
    168  CG2       70.0330   22.2860   62.3380 C.3   119  ILE119      0.0023
    169  CD1       67.3020   22.2330   59.7110 C.3   119  ILE119      0.0001
    170  N         68.7530   24.2570   64.2980 N.am  120  PHE120     -0.1974
    171  CA        68.2160   24.1040   65.6470 C.3   120  PHE120      0.1639
    172  C         67.4100   25.3250   66.1490 C.2   120  PHE120      0.2290
    173  O         66.8390   25.2760   67.2240 O.2   120  PHE120     -0.2864
    174  CB        69.3470   23.7490   66.6310 C.3   120  PHE120      0.0560
    175  CG        70.1290   22.5070   66.2330 C.ar  120  PHE120     -0.0200
    176  CD1       69.4890   21.2800   66.1170 C.ar  120  PHE120     -0.0042
    177  CD2       71.4780   22.5900   65.8950 C.ar  120  PHE120     -0.0042
    178  CE1       70.1760   20.1400   65.6550 C.ar  120  PHE120     -0.0003
    179  CE2       72.1710   21.4520   65.4350 C.ar  120  PHE120     -0.0003
    180  CZ        71.5090   20.2340   65.3150 C.ar  120  PHE120     -0.0000
    181  N         64.4340   17.1020   51.1610 N.3   134  TRP134     -0.1241
    182  CA        65.5810   16.5510   50.4340 C.3   134  TRP134      0.1605
    183  C         66.7350   16.7790   51.3960 C.2   134  TRP134      0.2264
    184  O         67.1230   17.9330   51.6700 O.2   134  TRP134     -0.2867
    185  CB        65.8500   17.2640   49.0970 C.3   134  TRP134      0.0550
    186  CG        67.2000   16.9220   48.4850 C.ar  134  TRP134      0.0003
    187  CD1       68.2950   17.7480   48.3800 C.ar  134  TRP134      0.0946
    188  CD2       67.6020   15.6630   47.9150 C.ar  134  TRP134      0.0152
    189  NE1       69.3420   17.0840   47.7820 N.ar  134  TRP134     -0.2442
    190  CE2       68.9470   15.8070   47.4880 C.ar  134  TRP134      0.0810
    191  CE3       66.9590   14.4300   47.7280 C.ar  134  TRP134      0.0012
    192  CZ2       69.6650   14.7570   46.8790 C.ar  134  TRP134      0.0191
    193  CZ3       67.6860   13.3760   47.1160 C.ar  134  TRP134      0.0001
    194  CH2       69.0190   13.5610   46.7050 C.ar  134  TRP134      0.0015
    195  N         70.5570   15.8730   51.8940 N.3   136  ARG136     -0.1231
    196  CA        71.8200   15.3700   51.3740 C.3   136  ARG136      0.1694
    197  C         72.8900   16.2960   51.9090 C.2   136  ARG136      0.2592
    198  O         72.7700   17.5200   51.8030 O.2   136  ARG136     -0.2718
    199  CB        71.8270   15.3800   49.8480 C.3   136  ARG136      0.0321
    200  CG        73.1050   14.7970   49.2250 C.3   136  ARG136      0.0489
    201  CD        74.1530   15.9030   49.0400 C.3   136  ARG136      0.2205
    202  NE        75.4450   15.4060   48.5440 N.pl3 136  ARG136     -0.0865
    203  CZ        76.4790   16.1990   48.2480 C.cat 136  ARG136      0.5346
    204  NH1       77.6210   15.6720   47.8110 N.pl3 136  ARG136      0.1354
    205  NH2       76.3590   17.5290   48.3800 N.pl3 136  ARG136      0.1354
    206  N         73.9410   15.7140   52.4730 N.am  137  GLY137     -0.1957
    207  CA        74.9910   16.5340   53.0450 C.3   137  GLY137      0.1869
    208  C         74.4330   17.3090   54.2300 C.2   137  GLY137      0.2309
    209  O         74.9880   18.3480   54.6040 O.2   137  GLY137     -0.2863
    210  N         76.1450   15.9390   58.0450 N.3   141  ALA141     -0.1231
    211  CA        77.0370   17.0570   58.3750 C.3   141  ALA141      0.1694
    212  C         76.8770   17.4670   59.8360 C.2   141  ALA141      0.2591
    213  O         77.7310   18.1470   60.4180 O.2   141  ALA141     -0.2718
    214  CB        76.7320   18.2520   57.4780 C.3   141  ALA141      0.0304
    215  N         75.7490   17.0590   60.4030 N.am  142  ILE142     -0.1980
    216  CA        75.3710   17.3470   61.7810 C.3   142  ILE142      0.1595
    217  C         76.2950   16.6460   62.7900 C.2   142  ILE142      0.2287
    218  O         76.6730   15.5000   62.5730 O.2   142  ILE142     -0.2864
    219  CB        73.9020   16.8690   61.9870 C.3   142  ILE142      0.0276
    220  CG1       72.9430   17.8220   61.2650 C.3   142  ILE142      0.0022
    221  CG2       73.5730   16.7350   63.4450 C.3   142  ILE142      0.0022
    222  CD1       72.9220   19.2270   61.8140 C.3   142  ILE142      0.0001
@<TRIPOS>BOND
     1    60    61    2
     2    60    59    1
     3    59    62    1
     4    59    58    1
     5    62    63    1
     6   118   117    1
     7   118   119    1
     8   118   121    1
     9   120   119    2
    10    57    55   ar
    11    57    56   ar
    12   122   121    1
    13   122   123    1
    14    55    53   ar
    15   125   123   ar
    16    66    64   am
    17   123   124   ar
    18    51    50    2
    19    56    54   ar
    20    63    64    1
    21    64    65    2
    22    58    50   am
    23   111   110    1
    24    50    49    1
    25   114   115    2
    26   114   113    1
    27    53    54   ar
    28    53    52    1
    29   106   105    2
    30   110   109    1
    31   109   108    1
    32    52    49    1
    33   113   112    1
    34   113   116    1
    35    49    48    1
    36   105   112   am
    37   105   104    1
    38   108   107    1
    39   194   192   ar
    40   194   193   ar
    41   107   104    1
    42   192   190   ar
    43   193   191   ar
    44    77    76   ar
    45    77    75   ar
    46    48    39   am
    47   104   103    1
    48    40    39    2
    49   190   189   ar
    50   190   188   ar
    51    76    74   ar
    52   191   188   ar
    53   189   187   ar
    54    39    38    1
    55   204   203    1
    56   188   186   ar
    57    75    73   ar
    58   203   205    1
    59   203   202    2
    60   187   186   ar
    61   186   185    1
    62   202   201    1
    63   103   101   am
    64    37    38    1
    65    38    41    1
    66    74    72   ar
    67   201   200    1
    68   185   182    1
    69    73    72   ar
    70   200   199    1
    71    35    36   ar
    72    35    33   ar
    73    72    71    1
    74   101   102    2
    75   101   100    1
    76   199   196    1
    77    36    34   ar
    78    96    95    2
    79    43    45   ar
    80    43    42   ar
    81    41    42    1
    82   182   181    1
    83   182   183    1
    84    45    47   ar
    85    33    30   ar
    86    42    44   ar
    87    71    68    1
    88   100    99    1
    89    95    99   am
    90    95    94    1
    91    34    32   ar
    92    26    25    2
    93   196   195    1
    94   196   197    1
    95   183   184    2
    96    97    94    1
    97    97    98    1
    98    47    46   ar
    99    44    46   ar
   100   198   197    2
   101    30    32   ar
   102    30    28   ar
   103   197   206   am
   104    94    93    1
   105    32    31   ar
   106    68    67    1
   107    68    69    1
   108   206   207    1
   109    25    24    1
   110    24    27    1
   111    24    23    1
   112   207   208    1
   113    28    27    1
   114    28    29   ar
   115    93    87   am
   116    69    70    2
   117    69    78   am
   118    31    29   ar
   119    88    87    2
   120    87    86    1
   121   138   137    1
   122   138   139    1
   123   208   209    2
   124   140   139   ar
   125    81    80    2
   126    78    84    1
   127    78    79    1
   128   137   134    1
   129    84    83    1
   130   139   141   ar
   131   126   127    1
   132    80    79    1
   133    80    85   am
   134    83    82    1
   135    79    82    1
   136    86    85    1
   137    86    89    1
   138   129   128    2
   139   134   133    1
   140   134   135    1
   141   128   133   am
   142   128   127    1
   143   127   130    1
   144    89    90    1
   145    21    19   ar
   146    21    22   ar
   147   136   135    2
   148   135   142   am
   149    12    11    2
   150    19    16   ar
   151    22    20   ar
   152   130   131    1
   153   130   132    1
   154   214   211    1
   155   142   143    1
   156   144   145    2
   157   144   143    1
   158    90    92    1
   159    90    91    1
   160   210   211    1
   161    11    10    1
   162   211   212    1
   163   143   146    1
   164    16    18   ar
   165    16    14   ar
   166    20    18   ar
   167    10    13    1
   168    10     9    1
   169   148   146    1
   170    13    14    1
   171    18    17   ar
   172   150   151    1
   173    14    15   ar
   174   146   147    1
   175   169   167    1
   176   212   215   am
   177   212   213    2
   178   153   152    2
   179   215   216    1
   180    17    15   ar
   181   147   149    1
   182   151   152    1
   183   151   154    1
   184   152   156   am
   185   167   166    1
   186   155   154    1
   187   220   222    1
   188   220   219    1
   189   166   163    1
   190   166   168    1
   191     4     3    2
   192   216   219    1
   193   216   217    1
   194   163   162    1
   195   163   164    1
   196   162   158   am
   197   219   221    1
   198   156   157    1
   199   158   157    1
   200   158   159    2
   201   157   160    1
   202   218   217    2
   203     3     2    1
   204     8     6    1
   205   164   165    2
   206   164   170   am
   207     2     5    1
   208     2     1    1
   209     5     6    1
   210   160   161    1
   211     6     7    1
   212   170   171    1
   213   180   179   ar
   214   180   178   ar
   215   179   177   ar
   216   171   172    1
   217   171   174    1
   218   178   176   ar
   219   177   175   ar
   220   176   175   ar
   221   172   173    2
   222   175   174    1
