@<TRIPOS>MOLECULE
tmp/2h11B02.pdb
 78 72 0 0 0
SMALL
GASTEIGER

@<TRIPOS>ATOM
      1  N         79.4960   26.3900   64.4350 N.3    10  LEU10      -0.1231
      2  CA        78.9330   27.1280   63.3090 C.3    10  LEU10       0.1693
      3  C         79.9960   28.0170   62.6450 C.2    10  LEU10       0.2591
      4  O         80.0060   28.1980   61.4160 O.2    10  LEU10      -0.2718
      5  CB        77.7620   27.9760   63.7790 C.3    10  LEU10       0.0284
      6  CG        76.5400   27.1960   64.2580 C.3    10  LEU10       0.0019
      7  CD1       75.4390   28.1850   64.6350 C.3    10  LEU10       0.0001
      8  CD2       76.0690   26.2410   63.1720 C.3    10  LEU10       0.0001
      9  N         80.8930   28.5650   63.4630 N.am   11  GLU11      -0.1979
     10  CA        81.9610   29.4190   62.9680 C.3    11  GLU11       0.1602
     11  C         82.8740   28.6290   62.0200 C.2    11  GLU11       0.2287
     12  O         83.3440   29.1650   61.0130 O.2    11  GLU11      -0.2864
     13  CB        82.7800   29.9880   64.1380 C.3    11  GLU11       0.0415
     14  CG        82.0880   31.0500   64.9980 C.3    11  GLU11       0.1163
     15  CD        80.8320   30.5700   65.7490 C.2    11  GLU11       0.3649
     16  OE1       80.7370   29.3710   66.1310 O.co2  11  GLU11      -0.2457
     17  OE2       79.9360   31.4230   65.9790 O.co2  11  GLU11      -0.2457
     18  N         73.4700   28.1920   57.5300 N.3    75  ILE75      -0.1245
     19  CA        74.0840   29.1570   58.4160 C.3    75  ILE75       0.1561
     20  C         74.9780   30.1800   57.6810 C.2    75  ILE75       0.2260
     21  O         75.1860   31.2830   58.1780 O.2    75  ILE75      -0.2867
     22  CB        74.8990   28.4320   59.5590 C.3    75  ILE75       0.0252
     23  CG1       75.2630   29.4210   60.6710 C.3    75  ILE75       0.0019
     24  CG2       76.1590   27.8100   59.0070 C.3    75  ILE75       0.0019
     25  CD1       74.0190   30.0080   61.4090 C.3    75  ILE75       0.0001
     26  N         64.6050   35.1800   66.0800 N.3    99  ILE99      -0.1231
     27  CA        66.0310   34.9610   66.3260 C.3    99  ILE99       0.1678
     28  C         66.7680   36.2460   65.9410 C.2    99  ILE99       0.2434
     29  O         67.2700   36.3720   64.8270 O.2    99  ILE99      -0.2733
     30  CB        66.5800   33.7870   65.4470 C.3    99  ILE99       0.0265
     31  CG1       65.6250   32.5860   65.4790 C.3    99  ILE99       0.0019
     32  CG2       67.9640   33.3510   65.9540 C.3    99  ILE99       0.0020
     33  CD1       65.5260   31.8760   66.8350 C.3    99  ILE99       0.0001
     34  N         66.8340   37.2190   66.8620 N.am  100  PRO100     -0.2729
     35  CA        67.5050   38.4980   66.6110 C.3   100  PRO100      0.1401
     36  C         68.8330   38.3620   65.8810 C.2   100  PRO100      0.2269
     37  O         69.6430   37.4760   66.1910 O.2   100  PRO100     -0.2865
     38  CB        67.6850   39.0730   68.0150 C.3   100  PRO100      0.0296
     39  CG        66.4760   38.5390   68.7400 C.3   100  PRO100      0.0237
     40  CD        66.4200   37.1120   68.2730 C.3   100  PRO100      0.0939
     41  N         69.3170   37.5610   62.6920 N.3   102  THR102     -0.1218
     42  CA        69.3040   36.6950   61.5140 C.3   102  THR102      0.1862
     43  C         68.2790   37.1370   60.4570 C.2   102  THR102      0.2287
     44  O         67.3370   37.8920   60.7450 O.2   102  THR102     -0.2866
     45  CB        69.0560   35.1930   61.8940 C.3   102  THR102      0.1770
     46  OG1       67.7330   35.0230   62.4090 O.3   102  THR102     -0.2211
     47  CG2       70.0720   34.7200   62.9450 C.3   102  THR102      0.0375
     48  N         70.1740   30.9080   59.3830 N.3   117  CYS117     -0.1221
     49  CA        70.2570   30.6730   60.8210 C.3   117  CYS117      0.1808
     50  C         70.5780   29.1920   61.0310 C.2   117  CYS117      0.2601
     51  O         70.8110   28.4740   60.0750 O.2   117  CYS117     -0.2717
     52  CB        68.9210   31.0150   61.5040 C.3   117  CYS117      0.0970
     53  SG        67.4530   29.9820   61.0540 S.3   117  CYS117     -0.0800
     54  N         70.5790   28.7370   62.2750 N.am  118  SER118     -0.1952
     55  CA        70.8650   27.3320   62.5310 C.3   118  SER118      0.1924
     56  C         69.6030   26.4960   62.4280 C.2   118  SER118      0.2314
     57  O         68.5140   26.9540   62.7660 O.2   118  SER118     -0.2863
     58  CB        71.4690   27.1520   63.9250 C.3   118  SER118      0.2116
     59  OG        71.5850   25.7710   64.2380 O.3   118  SER118     -0.2180
     60  N         67.3670   26.4050   65.3720 N.3   121  ASP121     -0.1239
     61  CA        66.5840   27.5980   65.7440 C.3   121  ASP121      0.1674
     62  C         65.1610   27.4970   65.1620 C.2   121  ASP121      0.2266
     63  O         64.2450   28.1930   65.6030 O.2   121  ASP121     -0.2867
     64  CB        67.1850   28.8920   65.1560 C.3   121  ASP121      0.1410
     65  CG        68.5370   29.2830   65.7650 C.2   121  ASP121      0.3668
     66  OD1       68.7200   29.1630   67.0000 O.co2 121  ASP121     -0.2456
     67  OD2       69.4100   29.7460   64.9900 O.co2 121  ASP121     -0.2456
     68  N         61.5240   27.4320   66.8600 N.3   124  ARG124     -0.1245
     69  CA        61.0950   28.6940   67.4380 C.3   124  ARG124      0.1563
     70  C         60.5640   29.6860   66.4030 C.2   124  ARG124      0.2260
     71  O         60.1610   30.7950   66.7570 O.2   124  ARG124     -0.2867
     72  CB        62.2520   29.3070   68.2290 C.3   124  ARG124      0.0307
     73  CG        62.4420   28.6580   69.6040 C.3   124  ARG124      0.0489
     74  CD        63.6480   29.2220   70.3180 C.3   124  ARG124      0.2205
     75  NE        64.8690   28.5010   69.9890 N.pl3 124  ARG124     -0.0865
     76  CZ        66.0820   29.0440   70.0070 C.cat 124  ARG124      0.5346
     77  NH1       66.2400   30.3210   70.3330 N.pl3 124  ARG124      0.1354
     78  NH2       67.1400   28.3060   69.6970 N.pl3 124  ARG124      0.1354
@<TRIPOS>BOND
     1    18    19    1
     2    20    21    2
     3    20    19    1
     4    19    22    1
     5    24    22    1
     6    48    49    1
     7    22    23    1
     8    51    50    2
     9    43    44    2
    10    43    42    1
    11    23    25    1
    12    49    50    1
    13    49    52    1
    14    12    11    2
    15    50    54   am
    16    53    52    1
    17     4     3    2
    18    42    45    1
    19    42    41    1
    20    45    46    1
    21    45    47    1
    22    11    10    1
    23    54    55    1
    24    56    55    1
    25    56    57    2
    26    55    58    1
    27     3     2    1
    28     3     9   am
    29    10     9    1
    30    10    13    1
    31     8     6    1
    32     2     5    1
    33     2     1    1
    34     5     6    1
    35    58    59    1
    36    13    14    1
    37     6     7    1
    38    29    28    2
    39    67    65   ar
    40    14    15    1
    41    64    61    1
    42    64    65    1
    43    62    63    2
    44    62    61    1
    45    60    61    1
    46    30    31    1
    47    30    32    1
    48    30    27    1
    49    31    33    1
    50    15    17   ar
    51    15    16   ar
    52    65    66   ar
    53    36    37    2
    54    36    35    1
    55    28    27    1
    56    28    34   am
    57    26    27    1
    58    70    71    2
    59    70    69    1
    60    35    34    1
    61    35    38    1
    62    68    69    1
    63    34    40    1
    64    69    72    1
    65    38    39    1
    66    72    73    1
    67    40    39    1
    68    73    74    1
    69    78    76    1
    70    75    76    2
    71    75    74    1
    72    76    77    1
