@<TRIPOS>MOLECULE
tmp/2h11B01.pdb
 106 102 0 0 0
SMALL
GASTEIGER

@<TRIPOS>ATOM
      1  N         55.3560   21.7850   49.0540 N.3    48  ARG48      -0.1245
      2  CA        56.2670   22.5940   49.8340 C.3    48  ARG48       0.1563
      3  C         57.4350   21.6770   50.1590 C.2    48  ARG48       0.2260
      4  O         57.2610   20.6690   50.8240 O.2    48  ARG48      -0.2867
      5  CB        55.6300   23.1040   51.1290 C.3    48  ARG48       0.0307
      6  CG        55.6100   24.6120   51.2360 C.3    48  ARG48       0.0489
      7  CD        55.1940   25.0760   52.6310 C.3    48  ARG48       0.2205
      8  NE        55.9860   26.2180   53.0920 N.pl3  48  ARG48      -0.0865
      9  CZ        56.3890   26.3690   54.3430 C.cat  48  ARG48       0.5346
     10  NH1       56.0700   25.4700   55.2450 N.pl3  48  ARG48       0.1354
     11  NH2       57.1290   27.4200   54.6940 N.pl3  48  ARG48       0.1354
     12  N         64.5390   39.8230   54.7590 N.3    94  GLU94      -0.1231
     13  CA        63.6060   40.0600   55.8430 C.3    94  GLU94       0.1684
     14  C         64.2100   39.5160   57.1410 C.2    94  GLU94       0.2434
     15  O         64.9850   38.5480   57.1320 O.2    94  GLU94      -0.2733
     16  CB        62.2960   39.3270   55.5910 C.3    94  GLU94       0.0402
     17  CG        61.2850   40.0800   54.7670 C.3    94  GLU94       0.1161
     18  CD        60.0610   39.2300   54.4880 C.2    94  GLU94       0.3649
     19  OE1       59.6330   38.4950   55.4070 O.co2  94  GLU94      -0.2457
     20  OE2       59.5280   39.2990   53.3620 O.co2  94  GLU94      -0.2457
     21  N         63.8500   40.1230   58.2770 N.am   95  PRO95      -0.2718
     22  CA        64.3970   39.6200   59.5370 C.3    95  PRO95       0.1535
     23  C         63.6270   38.3730   59.9790 C.2    95  PRO95       0.2598
     24  O         62.4470   38.2150   59.6500 O.2    95  PRO95      -0.2715
     25  CB        64.1630   40.7790   60.5010 C.3    95  PRO95       0.0310
     26  CG        62.8380   41.3400   59.9960 C.3    95  PRO95       0.0237
     27  CD        63.0130   41.3280   58.4890 C.3    95  PRO95       0.0939
     28  N         64.3130   37.4970   60.6770 N.am   96  ILE96      -0.1964
     29  CA        63.6790   36.3400   61.2780 C.3    96  ILE96       0.1727
     30  C         63.4450   36.9100   62.6680 C.2    96  ILE96       0.2617
     31  O         64.3340   36.8400   63.5230 O.2    96  ILE96      -0.2715
     32  CB        64.5860   35.0890   61.3330 C.3    96  ILE96       0.0290
     33  CG1       64.8950   34.5690   59.9250 C.3    96  ILE96       0.0022
     34  CG2       63.9580   34.0090   62.1900 C.3    96  ILE96       0.0023
     35  CD1       65.8950   33.4380   59.8900 C.3    96  ILE96       0.0001
     36  N         62.2590   37.4610   62.8980 N.am   97  THR97      -0.1937
     37  CA        62.0280   38.1420   64.1810 C.3    97  THR97       0.2028
     38  C         62.2820   37.3610   65.4670 C.2    97  THR97       0.2642
     39  O         62.6830   37.9420   66.4720 O.2    97  THR97      -0.2714
     40  CB        60.6040   38.7060   64.2690 C.3    97  THR97       0.1808
     41  OG1       59.6680   37.6260   64.1780 O.3    97  THR97      -0.2208
     42  CG2       60.3630   39.7310   63.1600 C.3    97  THR97       0.0379
     43  N         62.0520   36.0510   65.4420 N.am   98  GLU98      -0.1976
     44  CA        62.2440   35.2340   66.6360 C.3    98  GLU98       0.1602
     45  C         63.6890   35.0070   67.0280 C.2    98  GLU98       0.2287
     46  O         63.9680   34.6870   68.1810 O.2    98  GLU98      -0.2864
     47  CB        61.5530   33.8740   66.4630 C.3    98  GLU98       0.0415
     48  CG        60.0770   33.9950   66.0580 C.3    98  GLU98       0.1163
     49  CD        59.8700   34.1550   64.5450 C.2    98  GLU98       0.3649
     50  OE1       60.8360   34.4800   63.8280 O.co2  98  GLU98      -0.2457
     51  OE2       58.7300   33.9590   64.0750 O.co2  98  GLU98      -0.2457
     52  N         66.0920   36.0240   56.5290 N.3   104  VAL104     -0.1245
     53  CA        65.6360   35.0580   55.5590 C.3   104  VAL104      0.1561
     54  C         65.7390   35.7810   54.1950 C.2   104  VAL104      0.2260
     55  O         65.3560   36.9670   54.0590 O.2   104  VAL104     -0.2867
     56  CB        64.2000   34.5610   55.8530 C.3   104  VAL104      0.0252
     57  CG1       63.2440   35.7320   56.0150 C.3   104  VAL104      0.0019
     58  CG2       63.7440   33.6560   54.7230 C.3   104  VAL104      0.0019
     59  N         64.6260   35.9420   50.3450 N.3   106  LYS106     -0.1245
     60  CA        63.5150   35.5240   49.4980 C.3   106  LYS106      0.1561
     61  C         63.7070   35.8840   48.0390 C.2   106  LYS106      0.2260
     62  O         63.9750   37.0420   47.7050 O.2   106  LYS106     -0.2867
     63  CB        62.2150   36.1520   50.0270 C.3   106  LYS106      0.0271
     64  CG        62.0960   36.0270   51.5410 C.3   106  LYS106      0.0035
     65  CD        60.7030   36.2590   52.1030 C.3   106  LYS106      0.0206
     66  CE        60.7230   35.9550   53.6020 C.3   106  LYS106      0.1093
     67  NZ        59.3930   35.9890   54.2800 N.3   106  LYS106     -0.1314
     68  N         66.5050   30.5510   54.8920 N.3   115  TYR115     -0.1241
     69  CA        66.7130   31.0570   56.2490 C.3   115  TYR115      0.1605
     70  C         68.1870   31.0300   56.5940 C.2   115  TYR115      0.2264
     71  O         68.8130   29.9670   56.5490 O.2   115  TYR115     -0.2867
     72  CB        65.9920   30.1790   57.2720 C.3   115  TYR115      0.0534
     73  CG        64.5060   30.3460   57.3060 C.ar  115  TYR115     -0.0201
     74  CD1       63.8720   30.6580   58.4930 C.ar  115  TYR115     -0.0009
     75  CD2       63.7310   30.1890   56.1630 C.ar  115  TYR115     -0.0009
     76  CE1       62.5030   30.8190   58.5670 C.ar  115  TYR115      0.0417
     77  CE2       62.3380   30.3580   56.2200 C.ar  115  TYR115      0.0417
     78  CZ        61.7390   30.6770   57.4350 C.ar  115  TYR115      0.1957
     79  OH        60.3810   30.8980   57.5390 O.3   115  TYR115     -0.2866
     80  N         60.5600   29.2940   65.1330 N.3   125  THR125     -0.1203
     81  CA        60.0480   30.1530   64.0630 C.3   125  THR125      0.1994
     82  C         58.7010   29.5840   63.6050 C.2   125  THR125      0.2618
     83  O         58.2420   28.5530   64.0960 O.2   125  THR125     -0.2717
     84  CB        60.9410   30.1320   62.8010 C.3   125  THR125      0.1784
     85  OG1       60.8330   28.8410   62.1940 O.3   125  THR125     -0.2211
     86  CG2       62.4210   30.3980   63.1340 C.3   125  THR125      0.0376
     87  N         58.0860   30.2540   62.6430 N.am  126  ASN126     -0.1960
     88  CA        56.8210   29.7850   62.0780 C.3   126  ASN126      0.1819
     89  C         57.0800   29.3170   60.6480 C.2   126  ASN126      0.2621
     90  O         56.3430   29.6780   59.7230 O.2   126  ASN126     -0.2715
     91  CB        55.7870   30.9100   62.0600 C.3   126  ASN126      0.1195
     92  CG        55.2510   31.2280   63.4370 C.2   126  ASN126      0.2630
     93  OD1       54.9520   32.3760   63.7320 O.2   126  ASN126     -0.2716
     94  ND2       55.1190   30.2070   64.2850 N.am  126  ASN126     -0.0877
     95  N         58.1380   28.5250   60.4660 N.am  127  ILE127     -0.1963
     96  CA        58.4900   28.0080   59.1500 C.3   127  ILE127      0.1727
     97  C         57.4110   27.0500   58.6200 C.2   127  ILE127      0.2616
     98  O         57.2930   26.8260   57.4150 O.2   127  ILE127     -0.2715
     99  CB        59.8780   27.3200   59.1960 C.3   127  ILE127      0.0290
    100  CG1       60.3140   26.8970   57.7960 C.3   127  ILE127      0.0022
    101  CG2       59.8270   26.1010   60.0980 C.3   127  ILE127      0.0023
    102  CD1       61.7990   26.4670   57.7300 C.3   127  ILE127      0.0001
    103  N         56.6200   26.4730   59.5190 N.am  128  GLY128     -0.1955
    104  CA        55.5440   25.5980   59.0670 C.3   128  GLY128      0.1869
    105  C         55.8480   24.1460   58.7210 C.2   128  GLY128      0.2309
    106  O         56.8850   23.6180   59.1110 O.2   128  GLY128     -0.2863
@<TRIPOS>BOND
     1    62    61    2
     2    61    60    1
     3     1     2    1
     4    60    63    1
     5    60    59    1
     6     2     3    1
     7     2     5    1
     8    63    64    1
     9     3     4    2
    10     5     6    1
    11     6     7    1
    12    64    65    1
    13    65    66    1
    14     7     8    1
    15     8     9    2
    16    20    18   ar
    17    66    67    1
    18    55    54    2
    19    54    53    1
    20     9    11    1
    21     9    10    1
    22    18    17    1
    23    18    19   ar
    24    58    56    1
    25    12    13    1
    26    17    16    1
    27    68    69    1
    28    53    56    1
    29    53    52    1
    30    16    13    1
    31    13    14    1
    32    56    57    1
    33    75    77   ar
    34    75    73   ar
    35    77    78   ar
    36    69    70    1
    37    69    72    1
    38    71    70    2
    39    15    14    2
    40    14    21   am
    41    72    73    1
    42    73    74   ar
    43    98    97    2
    44    78    79    1
    45    78    76   ar
    46   102   100    1
    47   100    99    1
    48    21    27    1
    49    21    22    1
    50    27    26    1
    51    74    76   ar
    52    97    96    1
    53    97   103   am
    54   105   104    1
    55   105   106    2
    56   104   103    1
    57    96    99    1
    58    96    95    1
    59    99   101    1
    60    22    23    1
    61    22    25    1
    62    24    23    2
    63    90    89    2
    64    35    33    1
    65    33    32    1
    66    23    28   am
    67    26    25    1
    68    95    89   am
    69    89    88    1
    70    28    29    1
    71    29    32    1
    72    29    30    1
    73    32    34    1
    74    91    88    1
    75    91    92    1
    76    88    87    1
    77    85    84    1
    78    87    82   am
    79    30    36   am
    80    30    31    2
    81    84    86    1
    82    84    81    1
    83    36    37    1
    84    42    40    1
    85    92    93    2
    86    92    94   am
    87    82    81    1
    88    82    83    2
    89    50    49   ar
    90    81    80    1
    91    51    49   ar
    92    41    40    1
    93    37    40    1
    94    37    38    1
    95    49    48    1
    96    43    38   am
    97    43    44    1
    98    38    39    2
    99    48    47    1
   100    47    44    1
   101    44    45    1
   102    45    46    2
