@<TRIPOS>MOLECULE
tmp/2h12E00.pdb
 117 112 0 0 0
SMALL
GASTEIGER

@<TRIPOS>ATOM
      1  N         29.2090  -26.7590   32.5610 N.3    57  ILE57      -0.1245
      2  CA        27.8640  -27.2990   32.4200 C.3    57  ILE57       0.1561
      3  C         27.5180  -28.0560   33.6850 C.2    57  ILE57       0.2260
      4  O         28.3190  -28.8560   34.1590 O.2    57  ILE57      -0.2867
      5  CB        27.7100  -28.3880   31.3200 C.3    57  ILE57       0.0252
      6  CG1       28.1060  -27.8790   29.9310 C.3    57  ILE57       0.0019
      7  CG2       26.2460  -28.8490   31.2990 C.3    57  ILE57       0.0019
      8  CD1       28.1870  -29.0070   28.8980 C.3    57  ILE57       0.0001
      9  N         30.2820  -26.1050   23.6010 N.3   227  HIS227     -0.1241
     10  CA        29.5750  -26.8710   24.5970 C.3   227  HIS227      0.1621
     11  C         30.4670  -27.8390   25.3240 C.2   227  HIS227      0.2264
     12  O         30.1890  -29.0340   25.4170 O.2   227  HIS227     -0.2867
     13  CB        28.3370  -27.5910   24.0570 C.3   227  HIS227      0.0745
     14  CG        27.2600  -27.7480   25.0890 C.ar  227  HIS227      0.0817
     15  ND1       26.8030  -28.9760   25.5210 N.ar  227  HIS227     -0.2268
     16  CD2       26.5860  -26.8200   25.8110 C.ar  227  HIS227      0.1154
     17  CE1       25.8960  -28.7960   26.4660 C.ar  227  HIS227      0.1986
     18  NE2       25.7490  -27.4980   26.6630 N.ar  227  HIS227     -0.2212
     19  N         32.0680  -32.0880   24.2610 N.3   230  ASN230     -0.1225
     20  CA        31.1910  -32.8920   23.4070 C.3   230  ASN230      0.1785
     21  C         32.0610  -33.7130   22.4390 C.2   230  ASN230      0.2597
     22  O         33.2710  -33.4970   22.3590 O.2   230  ASN230     -0.2718
     23  CB        30.2530  -31.9630   22.6410 C.3   230  ASN230      0.1169
     24  CG        31.0080  -30.9010   21.8560 C.2   230  ASN230      0.2627
     25  OD1       31.5450  -31.1780   20.7890 O.2   230  ASN230     -0.2716
     26  ND2       31.0650  -29.6860   22.3960 N.am  230  ASN230     -0.0877
     27  N         31.4550  -34.6480   21.7120 N.am  231  ALA231     -0.1979
     28  CA        32.2080  -35.5070   20.7930 C.3   231  ALA231      0.1597
     29  C         33.0980  -34.7940   19.7670 C.2   231  ALA231      0.2287
     30  O         34.2460  -35.1960   19.5690 O.2   231  ALA231     -0.2864
     31  CB        31.2550  -36.4560   20.0680 C.3   231  ALA231      0.0319
     32  N         25.1990  -36.6740   17.1190 N.3   262  HIS262     -0.1241
     33  CA        25.7720  -35.3780   17.5130 C.3   262  HIS262      0.1621
     34  C         25.0440  -34.2570   16.7320 C.2   262  HIS262      0.2264
     35  O         23.8180  -34.2380   16.6910 O.2   262  HIS262     -0.2867
     36  CB        27.2920  -35.3500   17.2320 C.3   262  HIS262      0.0745
     37  CG        28.0360  -34.2600   17.9540 C.ar  262  HIS262      0.0817
     38  ND1       27.4060  -33.3270   18.7470 N.ar  262  HIS262     -0.2268
     39  CD2       29.3580  -33.9520   17.9910 C.ar  262  HIS262      0.1154
     40  CE1       28.3030  -32.4890   19.2360 C.ar  262  HIS262      0.1986
     41  NE2       29.4940  -32.8450   18.7910 N.ar  262  HIS262     -0.2212
     42  N         20.8480  -36.3570   26.3520 N.3   303  HIS303     -0.1226
     43  CA        22.1570  -35.7080   26.3840 C.3   303  HIS303      0.1752
     44  C         23.0750  -36.5080   27.2950 C.2   303  HIS303      0.2596
     45  O         22.6130  -37.1700   28.2310 O.2   303  HIS303     -0.2718
     46  CB        22.0250  -34.2740   26.9130 C.3   303  HIS303      0.0759
     47  CG        23.1340  -33.3640   26.4820 C.ar  303  HIS303      0.0818
     48  ND1       24.2480  -33.1210   27.2570 N.ar  303  HIS303     -0.2268
     49  CD2       23.2880  -32.6210   25.3600 C.ar  303  HIS303      0.1154
     50  CE1       25.0380  -32.2650   26.6330 C.ar  303  HIS303      0.1986
     51  NE2       24.4790  -31.9450   25.4800 N.ar  303  HIS303     -0.2212
     52  N         24.3690  -36.4630   27.0170 N.am  304  ARG304     -0.1966
     53  CA        25.3090  -37.1890   27.8440 C.3   304  ARG304      0.1729
     54  C         25.3930  -36.5030   29.1940 C.2   304  ARG304      0.2616
     55  O         25.4520  -37.1630   30.2300 O.2   304  ARG304     -0.2715
     56  CB        26.6920  -37.2230   27.1770 C.3   304  ARG304      0.0348
     57  CG        27.8110  -37.8020   28.0420 C.3   304  ARG304      0.0492
     58  CD        27.4790  -39.1850   28.6110 C.3   304  ARG304      0.2205
     59  NE        27.2900  -40.2240   27.5960 N.pl3 304  ARG304     -0.0865
     60  CZ        28.2700  -40.8210   26.9170 C.cat 304  ARG304      0.5346
     61  NH1       29.5380  -40.4890   27.1280 N.pl3 304  ARG304      0.1354
     62  NH2       27.9780  -41.7750   26.0390 N.pl3 304  ARG304      0.1354
     63  N         25.3640  -35.1750   29.1790 N.am  305  VAL305     -0.1977
     64  CA        25.4740  -34.3990   30.4070 C.3   305  VAL305      0.1596
     65  C         24.1480  -33.9040   31.0120 C.2   305  VAL305      0.2287
     66  O         23.8630  -34.1770   32.1830 O.2   305  VAL305     -0.2864
     67  CB        26.4340  -33.2070   30.1790 C.3   305  VAL305      0.0276
     68  CG1       26.5840  -32.3840   31.4530 C.3   305  VAL305      0.0022
     69  CG2       27.7800  -33.7380   29.7280 C.3   305  VAL305      0.0022
     70  N         19.8380  -24.1540   26.3530 N.3   312  ARG312     -0.1245
     71  CA        19.8540  -23.6880   24.9680 C.3   312  ARG312      0.1563
     72  C         18.5310  -24.0210   24.2670 C.2   312  ARG312      0.2260
     73  O         18.0610  -23.2540   23.4270 O.2   312  ARG312     -0.2867
     74  CB        21.0320  -24.3180   24.2080 C.3   312  ARG312      0.0307
     75  CG        22.4140  -23.9370   24.7460 C.3   312  ARG312      0.0489
     76  CD        23.5110  -24.8420   24.1690 C.3   312  ARG312      0.2205
     77  NE        23.1990  -26.2540   24.3690 N.pl3 312  ARG312     -0.0865
     78  CZ        23.8300  -27.2580   23.7680 C.cat 312  ARG312      0.5346
     79  NH1       24.8250  -27.0140   22.9250 N.pl3 312  ARG312      0.1354
     80  NH2       23.4410  -28.5070   23.9810 N.pl3 312  ARG312      0.1354
     81  N         19.5440  -28.9780   22.3940 N.3   360  VAL360     -0.1231
     82  CA        19.7140  -27.8840   21.4420 C.3   360  VAL360      0.1692
     83  C         19.1980  -28.1240   20.0120 C.2   360  VAL360      0.2592
     84  O         18.7750  -27.1780   19.3290 O.2   360  VAL360     -0.2718
     85  CB        21.2150  -27.4950   21.4010 C.3   360  VAL360      0.0266
     86  CG1       22.0210  -28.6240   20.7780 C.3   360  VAL360      0.0020
     87  CG2       21.4120  -26.1850   20.6680 C.3   360  VAL360      0.0020
     88  N         19.2040  -29.3760   19.5640 N.am  361  ASP361     -0.1974
     89  CA        18.7670  -29.7120   18.2070 C.3   361  ASP361      0.1709
     90  C         17.2640  -29.9000   17.9840 C.2   361  ASP361      0.2293
     91  O         16.8220  -30.0270   16.8380 O.2   361  ASP361     -0.2864
     92  CB        19.4700  -30.9880   17.7500 C.3   361  ASP361      0.1436
     93  CG        20.9740  -30.8730   17.8220 C.2   361  ASP361      0.3671
     94  OD1       21.5340  -29.9830   17.1470 O.co2 361  ASP361     -0.2456
     95  OD2       21.5970  -31.6660   18.5570 O.co2 361  ASP361     -0.2456
     96  N         25.6610  -25.2600   12.2470 N.3   382  PHE382     -0.1241
     97  CA        26.1040  -25.6470   13.5880 C.3   382  PHE382      0.1605
     98  C         27.6400  -25.6140   13.5640 C.2   382  PHE382      0.2264
     99  O         28.2770  -25.0190   14.4380 O.2   382  PHE382     -0.2867
    100  CB        25.5890  -27.0720   13.8870 C.3   382  PHE382      0.0534
    101  CG        25.6620  -27.4920   15.3450 C.ar  382  PHE382     -0.0203
    102  CD1       26.6320  -26.9850   16.2070 C.ar  382  PHE382     -0.0042
    103  CD2       24.7920  -28.4740   15.8260 C.ar  382  PHE382     -0.0042
    104  CE1       26.7360  -27.4530   17.5220 C.ar  382  PHE382     -0.0003
    105  CE2       24.8900  -28.9480   17.1380 C.ar  382  PHE382     -0.0003
    106  CZ        25.8660  -28.4350   17.9840 C.ar  382  PHE382     -0.0000
    107  N         30.1020  -23.5390   15.8570 N.3   386  ARG386     -0.1245
    108  CA        30.9640  -24.3260   16.7390 C.3   386  ARG386      0.1563
    109  C         32.4670  -24.2090   16.4530 C.2   386  ARG386      0.2260
    110  O         33.2770  -24.4870   17.3290 O.2   386  ARG386     -0.2867
    111  CB        30.5170  -25.7920   16.7220 C.3   386  ARG386      0.0307
    112  CG        31.2600  -26.7320   17.6920 C.3   386  ARG386      0.0489
    113  CD        31.2250  -26.2730   19.1570 C.3   386  ARG386      0.2205
    114  NE        29.8760  -26.0800   19.7010 N.pl3 386  ARG386     -0.0865
    115  CZ        29.0700  -27.0510   20.1240 C.cat 386  ARG386      0.5346
    116  NH1       29.4550  -28.3210   20.0800 N.pl3 386  ARG386      0.1354
    117  NH2       27.8660  -26.7460   20.5990 N.pl3 386  ARG386      0.1354
@<TRIPOS>BOND
     1    96    97    1
     2    98    97    1
     3    98    99    2
     4    97   100    1
     5   100   101    1
     6   101   103   ar
     7   101   102   ar
     8   103   105   ar
     9   107   108    1
    10   102   104   ar
    11   109   108    1
    12   109   110    2
    13    35    34    2
    14   111   108    1
    15   111   112    1
    16    34    33    1
    17    91    90    2
    18    32    33    1
    19   105   106   ar
    20    94    93   ar
    21    36    33    1
    22    36    37    1
    23   104   106   ar
    24   112   113    1
    25    92    93    1
    26    92    89    1
    27    93    95   ar
    28    37    39   ar
    29    37    38   ar
    30    90    89    1
    31    39    41   ar
    32    89    88    1
    33    38    40   ar
    34    41    40   ar
    35   113   114    1
    36    84    83    2
    37    88    83   am
    38    30    29    2
    39   114   115    2
    40    29    28    1
    41    83    82    1
    42    31    28    1
    43   116   115    1
    44   115   117    1
    45    87    85    1
    46    86    85    1
    47    25    24    2
    48    28    27    1
    49    85    82    1
    50    82    81    1
    51    27    21   am
    52    24    26   am
    53    24    23    1
    54    22    21    2
    55    21    20    1
    56    23    20    1
    57    79    78    1
    58    20    19    1
    59    73    72    2
    60     9    10    1
    61    78    80    1
    62    78    77    2
    63    13    10    1
    64    13    14    1
    65    76    77    1
    66    76    75    1
    67    74    75    1
    68    74    71    1
    69    72    71    1
    70    10    11    1
    71    71    70    1
    72    14    15   ar
    73    14    16   ar
    74    11    12    2
    75    49    51   ar
    76    49    47   ar
    77    51    50   ar
    78    15    17   ar
    79    16    18   ar
    80    62    60    1
    81    42    43    1
    82    43    46    1
    83    43    44    1
    84    17    18   ar
    85    47    46    1
    86    47    48   ar
    87    50    48   ar
    88    60    61    1
    89    60    59    2
    90    52    44   am
    91    52    53    1
    92    56    53    1
    93    56    57    1
    94    44    45    2
    95    59    58    1
    96    53    54    1
    97    57    58    1
    98     8     6    1
    99    63    54   am
   100    63    64    1
   101    54    55    2
   102    69    67    1
   103     6     5    1
   104    67    64    1
   105    67    68    1
   106    64    65    1
   107    65    66    2
   108     7     5    1
   109     5     2    1
   110     2     1    1
   111     2     3    1
   112     3     4    2
