@<TRIPOS>MOLECULE
tmp/2h12E01.pdb
 202 198 0 0 0
SMALL
GASTEIGER

@<TRIPOS>ATOM
      1  N         24.6210  -38.3970   13.2340 N.3   260  PRO260     -0.2102
      2  CA        23.2660  -38.1150   13.7230 C.3   260  PRO260      0.1504
      3  C         23.0870  -38.1290   15.2480 C.2   260  PRO260      0.2576
      4  O         22.1100  -37.5800   15.7600 O.2   260  PRO260     -0.2718
      5  CB        22.3840  -39.1330   12.9870 C.3   260  PRO260      0.0282
      6  CG        23.3050  -40.1900   12.4980 C.3   260  PRO260      0.0208
      7  CD        24.6940  -39.6210   12.4190 C.3   260  PRO260      0.0893
      8  N         24.0250  -38.7300   15.9730 N.am  261  ALA261     -0.1966
      9  CA        23.9340  -38.7460   17.4290 C.3   261  ALA261      0.1728
     10  C         24.4970  -37.4230   17.9720 C.2   261  ALA261      0.2616
     11  O         24.2880  -37.0840   19.1370 O.2   261  ALA261     -0.2715
     12  CB        24.7100  -39.9410   18.0030 C.3   261  ALA261      0.0334
     13  N         25.1990  -36.6740   17.1190 N.am  262  HIS262     -0.1973
     14  CA        25.7720  -35.3780   17.5130 C.3   262  HIS262      0.1656
     15  C         25.0440  -34.2570   16.7320 C.2   262  HIS262      0.2291
     16  O         23.8180  -34.2380   16.6910 O.2   262  HIS262     -0.2864
     17  CB        27.2920  -35.3500   17.2320 C.3   262  HIS262      0.0771
     18  CG        28.0360  -34.2600   17.9540 C.ar  262  HIS262      0.0820
     19  ND1       27.4060  -33.3270   18.7470 N.ar  262  HIS262     -0.2267
     20  CD2       29.3580  -33.9520   17.9910 C.ar  262  HIS262      0.1154
     21  CE1       28.3030  -32.4890   19.2360 C.ar  262  HIS262      0.1986
     22  NE2       29.4940  -32.8450   18.7910 N.ar  262  HIS262     -0.2212
     23  N         21.9140  -34.4310   14.3150 N.3   265  ALA265     -0.1245
     24  CA        20.5820  -34.5990   14.8650 C.3   265  ALA265      0.1562
     25  C         19.6580  -33.4430   14.4780 C.2   265  ALA265      0.2260
     26  O         18.4450  -33.6450   14.3630 O.2   265  ALA265     -0.2867
     27  CB        20.6580  -34.7250   16.3870 C.3   265  ALA265      0.0290
     28  N          9.7670  -45.5600   19.4480 N.3   289  VAL289     -0.1245
     29  CA        10.8660  -45.0610   20.2740 C.3   289  VAL289      0.1561
     30  C         10.9760  -45.9080   21.5410 C.2   289  VAL289      0.2260
     31  O         12.0760  -46.2720   21.9640 O.2   289  VAL289     -0.2867
     32  CB        10.6390  -43.5660   20.6700 C.3   289  VAL289      0.0252
     33  CG1       11.6590  -43.1270   21.7090 C.3   289  VAL289      0.0019
     34  CG2       10.7520  -42.6680   19.4310 C.3   289  VAL289      0.0019
     35  N         14.8950  -46.8560   16.8700 N.3   296  VAL296     -0.1231
     36  CA        14.3580  -45.5360   16.5500 C.3   296  VAL296      0.1692
     37  C         14.4370  -44.7080   17.8220 C.2   296  VAL296      0.2592
     38  O         14.1050  -45.1930   18.9020 O.2   296  VAL296     -0.2718
     39  CB        12.8730  -45.6270   16.0850 C.3   296  VAL296      0.0266
     40  CG1       12.2820  -44.2350   15.9230 C.3   296  VAL296      0.0020
     41  CG2       12.7840  -46.3860   14.7640 C.3   296  VAL296      0.0020
     42  N         14.8860  -43.4670   17.6940 N.am  297  LYS297     -0.1966
     43  CA        15.0220  -42.5900   18.8500 C.3   297  LYS297      0.1728
     44  C         14.2610  -41.2890   18.6700 C.2   297  LYS297      0.2616
     45  O         13.9300  -40.9140   17.5490 O.2   297  LYS297     -0.2715
     46  CB        16.5090  -42.2820   19.0800 C.3   297  LYS297      0.0311
     47  CG        17.2720  -43.4350   19.7030 C.3   297  LYS297      0.0038
     48  CD        18.7750  -43.2650   19.5730 C.3   297  LYS297      0.0206
     49  CE        19.5050  -43.9960   20.6910 C.3   297  LYS297      0.1093
     50  NZ        18.8090  -45.2010   21.2350 N.3   297  LYS297     -0.1314
     51  N         13.9700  -40.6090   19.7760 N.am  298  LEU298     -0.1963
     52  CA        13.2840  -39.3270   19.7020 C.3   298  LEU298      0.1728
     53  C         14.4330  -38.3680   19.4730 C.2   298  LEU298      0.2616
     54  O         15.0920  -37.9450   20.4140 O.2   298  LEU298     -0.2715
     55  CB        12.5620  -39.0110   21.0170 C.3   298  LEU298      0.0311
     56  CG        11.8990  -37.6330   21.1650 C.3   298  LEU298      0.0022
     57  CD1       11.1000  -37.3040   19.9130 C.3   298  LEU298      0.0001
     58  CD2       10.9970  -37.6290   22.3960 C.3   298  LEU298      0.0001
     59  N         14.7000  -38.0640   18.2110 N.am  299  MET299     -0.1963
     60  CA        15.8000  -37.1720   17.8910 C.3   299  MET299      0.1736
     61  C         15.5580  -35.8140   18.5390 C.2   299  MET299      0.2617
     62  O         14.4270  -35.3300   18.5890 O.2   299  MET299     -0.2715
     63  CB        15.9460  -37.0500   16.3700 C.3   299  MET299      0.0427
     64  CG        16.1790  -38.3990   15.6920 C.3   299  MET299      0.0599
     65  SD        17.6170  -39.3050   16.3610 S.3   299  MET299     -0.1393
     66  CE        18.9590  -38.5360   15.3860 C.3   299  MET299      0.0692
     67  N         16.6190  -35.2050   19.0540 N.am  300  GLY300     -0.1940
     68  CA        16.4550  -33.9160   19.6960 C.3   300  GLY300      0.2014
     69  C         16.1970  -34.0250   21.1910 C.2   300  GLY300      0.2639
     70  O         16.0130  -33.0110   21.8530 O.2   300  GLY300     -0.2714
     71  N         16.1830  -35.2470   21.7260 N.am  301  PHE301     -0.1959
     72  CA        15.9820  -35.4690   23.1600 C.3   301  PHE301      0.1771
     73  C         17.1900  -36.2360   23.6470 C.2   301  PHE301      0.2620
     74  O         17.8090  -36.9640   22.8760 O.2   301  PHE301     -0.2715
     75  CB        14.7440  -36.3270   23.4540 C.3   301  PHE301      0.0574
     76  CG        13.5300  -35.5390   23.8400 C.ar  301  PHE301     -0.0200
     77  CD1       12.9870  -34.6220   22.9530 C.ar  301  PHE301     -0.0042
     78  CD2       12.9000  -35.7400   25.0720 C.ar  301  PHE301     -0.0042
     79  CE1       11.8370  -33.9230   23.2750 C.ar  301  PHE301     -0.0003
     80  CE2       11.7410  -35.0390   25.4010 C.ar  301  PHE301     -0.0003
     81  CZ        11.2140  -34.1290   24.4910 C.ar  301  PHE301     -0.0000
     82  N         17.5020  -36.0890   24.9260 N.am  302  GLY302     -0.1940
     83  CA        18.6300  -36.8040   25.4890 C.3   302  GLY302      0.2014
     84  C         19.9470  -36.0520   25.4230 C.2   302  GLY302      0.2639
     85  O         20.1550  -35.2110   24.5440 O.2   302  GLY302     -0.2714
     86  N         20.8480  -36.3570   26.3520 N.am  303  HIS303     -0.1959
     87  CA        22.1570  -35.7080   26.3840 C.3   303  HIS303      0.1787
     88  C         23.0750  -36.5080   27.2950 C.2   303  HIS303      0.2620
     89  O         22.6130  -37.1700   28.2310 O.2   303  HIS303     -0.2715
     90  CB        22.0250  -34.2740   26.9130 C.3   303  HIS303      0.0785
     91  CG        23.1340  -33.3640   26.4820 C.ar  303  HIS303      0.0821
     92  ND1       24.2480  -33.1210   27.2570 N.ar  303  HIS303     -0.2267
     93  CD2       23.2880  -32.6210   25.3600 C.ar  303  HIS303      0.1154
     94  CE1       25.0380  -32.2650   26.6330 C.ar  303  HIS303      0.1986
     95  NE2       24.4790  -31.9450   25.4800 N.ar  303  HIS303     -0.2212
     96  N         24.3690  -36.4630   27.0170 N.am  304  ARG304     -0.1977
     97  CA        25.3090  -37.1890   27.8440 C.3   304  ARG304      0.1597
     98  C         25.3930  -36.5030   29.1940 C.2   304  ARG304      0.2287
     99  O         25.4520  -37.1630   30.2300 O.2   304  ARG304     -0.2864
    100  CB        26.6920  -37.2230   27.1770 C.3   304  ARG304      0.0334
    101  CG        27.8110  -37.8020   28.0420 C.3   304  ARG304      0.0492
    102  CD        27.4790  -39.1850   28.6110 C.3   304  ARG304      0.2205
    103  NE        27.2900  -40.2240   27.5960 N.pl3 304  ARG304     -0.0865
    104  CZ        28.2700  -40.8210   26.9170 C.cat 304  ARG304      0.5346
    105  NH1       29.5380  -40.4890   27.1280 N.pl3 304  ARG304      0.1354
    106  NH2       27.9780  -41.7750   26.0390 N.pl3 304  ARG304      0.1354
    107  N         20.5970  -33.7460   32.3420 N.3   307  LYS307     -0.1245
    108  CA        19.6550  -34.7240   32.8700 C.3   307  LYS307      0.1561
    109  C         18.5500  -33.8150   33.3980 C.2   307  LYS307      0.2260
    110  O         17.9890  -34.0240   34.4700 O.2   307  LYS307     -0.2867
    111  CB        20.3200  -35.5390   33.9910 C.3   307  LYS307      0.0271
    112  CG        20.9500  -36.8710   33.5260 C.3   307  LYS307      0.0035
    113  CD        21.9650  -36.7160   32.4010 C.3   307  LYS307      0.0206
    114  CE        22.4690  -38.0690   31.8780 C.3   307  LYS307      0.1093
    115  NZ        21.8260  -38.4960   30.5960 N.3   307  LYS307     -0.1314
    116  N         19.8380  -24.1540   26.3530 N.3   312  ARG312     -0.1245
    117  CA        19.8540  -23.6880   24.9680 C.3   312  ARG312      0.1563
    118  C         18.5310  -24.0210   24.2670 C.2   312  ARG312      0.2260
    119  O         18.0610  -23.2540   23.4270 O.2   312  ARG312     -0.2867
    120  CB        21.0320  -24.3180   24.2080 C.3   312  ARG312      0.0307
    121  CG        22.4140  -23.9370   24.7460 C.3   312  ARG312      0.0489
    122  CD        23.5110  -24.8420   24.1690 C.3   312  ARG312      0.2205
    123  NE        23.1990  -26.2540   24.3690 N.pl3 312  ARG312     -0.0865
    124  CZ        23.8300  -27.2580   23.7680 C.cat 312  ARG312      0.5346
    125  NH1       24.8250  -27.0140   22.9250 N.pl3 312  ARG312      0.1354
    126  NH2       23.4410  -28.5070   23.9810 N.pl3 312  ARG312      0.1354
    127  N          8.8020  -43.6250   30.2130 N.3   350  TYR350     -0.1227
    128  CA        10.0090  -44.0470   29.5180 C.3   350  TYR350      0.1736
    129  C         11.0170  -42.9070   29.5420 C.2   350  TYR350      0.2595
    130  O         12.1740  -43.1000   29.9050 O.2   350  TYR350     -0.2718
    131  CB         9.6950  -44.4250   28.0630 C.3   350  TYR350      0.0548
    132  CG        10.9280  -44.7170   27.2290 C.ar  350  TYR350     -0.0200
    133  CD1       11.6440  -43.6870   26.6140 C.ar  350  TYR350     -0.0009
    134  CD2       11.4070  -46.0210   27.0910 C.ar  350  TYR350     -0.0009
    135  CE1       12.8080  -43.9480   25.8880 C.ar  350  TYR350      0.0417
    136  CE2       12.5680  -46.2910   26.3710 C.ar  350  TYR350      0.0417
    137  CZ        13.2620  -45.2510   25.7700 C.ar  350  TYR350      0.1957
    138  OH        14.4130  -45.5050   25.0550 O.3   350  TYR350     -0.2866
    139  N         10.5720  -41.7130   29.1700 N.am  351  PHE351     -0.1976
    140  CA        11.4670  -40.5600   29.1420 C.3   351  PHE351      0.1639
    141  C         11.7910  -39.9800   30.5110 C.2   351  PHE351      0.2290
    142  O         12.9190  -39.5350   30.7500 O.2   351  PHE351     -0.2864
    143  CB        10.8900  -39.4740   28.2280 C.3   351  PHE351      0.0560
    144  CG        10.5910  -39.9640   26.8430 C.ar  351  PHE351     -0.0200
    145  CD1        9.3570  -40.5340   26.5420 C.ar  351  PHE351     -0.0042
    146  CD2       11.5720  -39.9350   25.8560 C.ar  351  PHE351     -0.0042
    147  CE1        9.1090  -41.0720   25.2770 C.ar  351  PHE351     -0.0003
    148  CE2       11.3300  -40.4730   24.5900 C.ar  351  PHE351     -0.0003
    149  CZ        10.0990  -41.0410   24.3010 C.ar  351  PHE351     -0.0000
    150  N         14.4560  -42.0080   32.3350 N.3   354  ARG354     -0.1245
    151  CA        15.7620  -41.8850   31.7050 C.3   354  ARG354      0.1563
    152  C         16.2910  -40.4520   31.7000 C.2   354  ARG354      0.2260
    153  O         17.3780  -40.1870   31.1890 O.2   354  ARG354     -0.2867
    154  CB        15.6970  -42.4490   30.2770 C.3   354  ARG354      0.0307
    155  CG        15.6670  -43.9780   30.2420 C.3   354  ARG354      0.0489
    156  CD        15.1420  -44.5210   28.9090 C.3   354  ARG354      0.2205
    157  NE        15.0100  -45.9770   28.9290 N.pl3 354  ARG354     -0.0865
    158  CZ        14.0090  -46.6370   29.5100 C.cat 354  ARG354      0.5346
    159  NH1       13.0340  -45.9760   30.1250 N.pl3 354  ARG354      0.1354
    160  NH2       13.9810  -47.9650   29.4760 N.pl3 354  ARG354      0.1354
    161  N         15.3120  -37.8490   30.0190 N.3   356  LEU356     -0.1245
    162  CA        15.4610  -37.3790   28.6520 C.3   356  LEU356      0.1561
    163  C         14.6090  -36.1360   28.4230 C.2   356  LEU356      0.2260
    164  O         13.3850  -36.1570   28.6150 O.2   356  LEU356     -0.2867
    165  CB        15.0580  -38.4810   27.6700 C.3   356  LEU356      0.0270
    166  CG        15.7700  -39.8290   27.8190 C.3   356  LEU356      0.0019
    167  CD1       15.2250  -40.7840   26.7670 C.3   356  LEU356      0.0001
    168  CD2       17.2870  -39.6610   27.6560 C.3   356  LEU356      0.0001
    169  N         17.0320  -31.2660   23.6270 N.3   359  ASN359     -0.1225
    170  CA        18.3790  -30.7250   23.6200 C.3   359  ASN359      0.1785
    171  C         18.4000  -29.6330   22.5510 C.2   359  ASN359      0.2597
    172  O         17.3870  -29.3870   21.8940 O.2   359  ASN359     -0.2718
    173  CB        19.4410  -31.8070   23.3490 C.3   359  ASN359      0.1169
    174  CG        19.2230  -32.5460   22.0440 C.2   359  ASN359      0.2627
    175  OD1       19.0150  -31.9360   21.0000 O.2   359  ASN359     -0.2716
    176  ND2       19.2870  -33.8730   22.0980 N.am  359  ASN359     -0.0877
    177  N         19.5440  -28.9780   22.3940 N.am  360  VAL360     -0.1966
    178  CA        19.7140  -27.8840   21.4420 C.3   360  VAL360      0.1727
    179  C         19.1980  -28.1240   20.0120 C.2   360  VAL360      0.2616
    180  O         18.7750  -27.1780   19.3290 O.2   360  VAL360     -0.2715
    181  CB        21.2150  -27.4950   21.4010 C.3   360  VAL360      0.0290
    182  CG1       22.0210  -28.6240   20.7780 C.3   360  VAL360      0.0023
    183  CG2       21.4120  -26.1850   20.6680 C.3   360  VAL360      0.0023
    184  N         19.2040  -29.3760   19.5640 N.am  361  ASP361     -0.1971
    185  CA        18.7670  -29.7120   18.2070 C.3   361  ASP361      0.1709
    186  C         17.2640  -29.9000   17.9840 C.2   361  ASP361      0.2293
    187  O         16.8220  -30.0270   16.8380 O.2   361  ASP361     -0.2864
    188  CB        19.4700  -30.9880   17.7500 C.3   361  ASP361      0.1436
    189  CG        20.9740  -30.8730   17.8220 C.2   361  ASP361      0.3671
    190  OD1       21.5340  -29.9830   17.1470 O.co2 361  ASP361     -0.2456
    191  OD2       21.5970  -31.6660   18.5570 O.co2 361  ASP361     -0.2456
    192  N         25.6610  -25.2600   12.2470 N.3   382  PHE382     -0.1241
    193  CA        26.1040  -25.6470   13.5880 C.3   382  PHE382      0.1605
    194  C         27.6400  -25.6140   13.5640 C.2   382  PHE382      0.2264
    195  O         28.2770  -25.0190   14.4380 O.2   382  PHE382     -0.2867
    196  CB        25.5890  -27.0720   13.8870 C.3   382  PHE382      0.0534
    197  CG        25.6620  -27.4920   15.3450 C.ar  382  PHE382     -0.0203
    198  CD1       26.6320  -26.9850   16.2070 C.ar  382  PHE382     -0.0042
    199  CD2       24.7920  -28.4740   15.8260 C.ar  382  PHE382     -0.0042
    200  CE1       26.7360  -27.4530   17.5220 C.ar  382  PHE382     -0.0003
    201  CE2       24.8900  -28.9480   17.1380 C.ar  382  PHE382     -0.0003
    202  CZ        25.8660  -28.4350   17.9840 C.ar  382  PHE382     -0.0000
@<TRIPOS>BOND
     1   192   193    1
     2     7     6    1
     3     7     1    1
     4     6     5    1
     5     5     2    1
     6     1     2    1
     7   194   193    1
     8   194   195    2
     9   193   196    1
    10     2     3    1
    11   196   197    1
    12    23    24    1
    13    26    25    2
    14    25    24    1
    15    41    39    1
    16    24    27    1
    17     3     4    2
    18     3     8   am
    19   197   199   ar
    20   197   198   ar
    21    66    65    1
    22    64    65    1
    23    64    63    1
    24   199   201   ar
    25    40    39    1
    26     8     9    1
    27    39    36    1
    28   198   200   ar
    29    63    60    1
    30    36    35    1
    31    36    37    1
    32    16    15    2
    33    15    14    1
    34   187   186    2
    35    13    14    1
    36    13    10   am
    37   201   202   ar
    38   190   189   ar
    39    17    14    1
    40    17    18    1
    41     9    10    1
    42     9    12    1
    43   200   202   ar
    44    45    44    2
    45    42    37   am
    46    42    43    1
    47   188   189    1
    48   188   185    1
    49   189   191   ar
    50    37    38    2
    51    60    59    1
    52    60    61    1
    53    18    20   ar
    54    18    19   ar
    55    10    11    2
    56   186   185    1
    57    20    22   ar
    58   185   184    1
    59    59    53   am
    60    61    62    2
    61    61    67   am
    62    44    43    1
    63    44    51   am
    64    19    21   ar
    65    22    21   ar
    66    43    46    1
    67    67    68    1
    68    46    47    1
    69   180   179    2
    70    34    32    1
    71    28    29    1
    72    53    52    1
    73    53    54    2
    74   184   179   am
    75    48    47    1
    76    48    49    1
    77    68    69    1
    78    52    51    1
    79    52    55    1
    80    57    56    1
    81   179   178    1
    82    29    32    1
    83    29    30    1
    84   183   181    1
    85    32    33    1
    86    49    50    1
    87   182   181    1
    88   175   174    2
    89    55    56    1
    90    56    58    1
    91    69    71   am
    92    69    70    2
    93   181   178    1
    94   178   177    1
    95    30    31    2
    96    71    72    1
    97   172   171    2
    98   174   176   am
    99   174   173    1
   100   177   171   am
   101   171   170    1
   102    74    73    2
   103   125   124    1
   104    77    79   ar
   105    77    76   ar
   106    72    75    1
   107    72    73    1
   108    79    81   ar
   109   173   170    1
   110   119   118    2
   111    75    76    1
   112   170   169    1
   113    73    82   am
   114   124   126    1
   115   124   123    2
   116    76    78   ar
   117   122   123    1
   118   122   121    1
   119   120   121    1
   120   120   117    1
   121   118   117    1
   122   149   148   ar
   123   149   147   ar
   124    81    80   ar
   125    85    84    2
   126   148   146   ar
   127    82    83    1
   128   117   116    1
   129   138   137    1
   130    78    80   ar
   131   147   145   ar
   132    93    95   ar
   133    93    91   ar
   134    84    83    1
   135    84    86   am
   136    95    94   ar
   137   137   135   ar
   138   137   136   ar
   139   146   144   ar
   140   135   133   ar
   141   106   104    1
   142    86    87    1
   143   136   134   ar
   144    87    90    1
   145    87    88    1
   146    91    90    1
   147    91    92   ar
   148   145   144   ar
   149   133   132   ar
   150    94    92   ar
   151   167   166    1
   152   144   143    1
   153   104   105    1
   154   104   103    2
   155    96    88   am
   156    96    97    1
   157   134   132   ar
   158   100    97    1
   159   100   101    1
   160   132   131    1
   161    88    89    2
   162   103   102    1
   163   168   166    1
   164   165   166    1
   165   165   162    1
   166    97    98    1
   167   101   102    1
   168   131   128    1
   169   143   140    1
   170   163   164    2
   171   163   162    1
   172   162   161    1
   173   156   157    1
   174   156   155    1
   175   157   158    2
   176   140   139    1
   177   140   141    1
   178   139   129   am
   179    98    99    2
   180   160   158    1
   181   158   159    1
   182   128   129    1
   183   128   127    1
   184   129   130    2
   185   155   154    1
   186   154   151    1
   187   141   142    2
   188   115   114    1
   189   153   152    2
   190   152   151    1
   191   151   150    1
   192   114   113    1
   193   107   108    1
   194   113   112    1
   195   108   109    1
   196   108   111    1
   197   109   110    2
   198   112   111    1
