@<TRIPOS>MOLECULE
tmp/2h15A00.pdb
 179 177 0 0 0
SMALL
GASTEIGER

@<TRIPOS>ATOM
      1  N          8.1940   -0.3710   10.3540 N.3     2  TRP2       -0.1241
      2  CA         7.5250   -1.3440   11.2100 C.3     2  TRP2        0.1605
      3  C          6.5200   -2.1910   10.4470 C.2     2  TRP2        0.2264
      4  O          5.9110   -1.7440    9.4640 O.2     2  TRP2       -0.2867
      5  CB         6.8740   -0.6670   12.4300 C.3     2  TRP2        0.0550
      6  CG         5.6000    0.0520   12.1160 C.ar    2  TRP2        0.0003
      7  CD1        5.4570    1.3720   11.7850 C.ar    2  TRP2        0.0946
      8  CD2        4.2740   -0.5110   12.0930 C.ar    2  TRP2        0.0152
      9  NE1        4.1470    1.6590   11.5560 N.ar    2  TRP2       -0.2442
     10  CE2        3.3940    0.5250   11.7290 C.ar    2  TRP2        0.0810
     11  CE3        3.7570   -1.8020   12.3210 C.ar    2  TRP2        0.0012
     12  CZ2        2.0070    0.3350   11.6150 C.ar    2  TRP2        0.0191
     13  CZ3        2.3890   -1.9970   12.1940 C.ar    2  TRP2        0.0001
     14  CH2        1.5230   -0.9250   11.8390 C.ar    2  TRP2        0.0015
     15  N          4.7270   -6.5630   10.8110 N.3     4  TYR4       -0.1241
     16  CA         4.3820   -7.6860   11.6630 C.3     4  TYR4        0.1605
     17  C          5.2350   -8.9150   11.4480 C.2     4  TYR4        0.2264
     18  O          4.9500   -9.9700   12.0270 O.2     4  TYR4       -0.2867
     19  CB         2.9080   -8.0540   11.5010 C.3     4  TYR4        0.0534
     20  CG         1.9710   -6.9810   11.9950 C.ar    4  TYR4       -0.0201
     21  CD1        1.4570   -6.0480   11.1190 C.ar    4  TYR4       -0.0009
     22  CD2        1.5580   -6.9480   13.3330 C.ar    4  TYR4       -0.0009
     23  CE1        0.5780   -5.0740   11.5560 C.ar    4  TYR4        0.0417
     24  CE2        0.6930   -5.9500   13.7850 C.ar    4  TYR4        0.0417
     25  CZ         0.2060   -5.0340   12.8890 C.ar    4  TYR4        0.1957
     26  OH        -0.6750   -4.0480   13.2840 O.3     4  TYR4       -0.2866
     27  N         -3.3430    0.1180    3.5470 N.3    59  ASN59      -0.1240
     28  CA        -2.2880    1.0490    3.9850 C.3    59  ASN59       0.1653
     29  C         -1.0010    0.2760    4.2720 C.2    59  ASN59       0.2266
     30  O         -0.1080    0.7680    4.9360 O.2    59  ASN59      -0.2867
     31  CB        -2.7480    1.8450    5.2260 C.3    59  ASN59       0.1155
     32  CG        -2.6930    1.0170    6.5220 C.2    59  ASN59       0.2627
     33  OD1       -2.5830   -0.2120    6.4960 O.2    59  ASN59      -0.2716
     34  ND2       -2.7640    1.7010    7.6600 N.am   59  ASN59      -0.0877
     35  N         -0.7250   -2.3670    6.2100 N.3    61  HIS61      -0.1226
     36  CA        -0.8220   -3.0860    7.4940 C.3    61  HIS61       0.1752
     37  C         -2.1830   -3.7430    7.6490 C.2    61  HIS61       0.2595
     38  O         -2.2790   -4.8500    8.1650 O.2    61  HIS61      -0.2718
     39  CB        -0.6420   -2.1570    8.6950 C.3    61  HIS61       0.0759
     40  CG         0.4870   -1.2150    8.5400 C.ar   61  HIS61       0.0818
     41  ND1        1.8030   -1.6240    8.5980 N.ar   61  HIS61      -0.2268
     42  CD2        0.5100    0.1090    8.2810 C.ar   61  HIS61       0.1154
     43  CE1        2.5910   -0.5830    8.3950 C.ar   61  HIS61       0.1986
     44  NE2        1.8310    0.4760    8.1880 N.ar   61  HIS61      -0.2212
     45  N         -3.2250   -3.0050    7.2720 N.am   62  ALA62      -0.1980
     46  CA        -4.5710   -3.5180    7.1790 C.3    62  ALA62       0.1597
     47  C         -5.2790   -2.6960    6.0890 C.2    62  ALA62       0.2287
     48  O         -4.6310   -2.0080    5.2940 O.2    62  ALA62      -0.2864
     49  CB        -5.2920   -3.3700    8.5280 C.3    62  ALA62       0.0319
     50  N         -8.2820    0.3600    5.8620 N.3    64  ASN64      -0.1240
     51  CA        -9.0440    1.3630    6.5830 C.3    64  ASN64       0.1653
     52  C        -10.2550    1.7560    5.7630 C.2    64  ASN64       0.2266
     53  O        -10.0930    2.1120    4.5800 O.2    64  ASN64      -0.2867
     54  CB        -8.2340    2.6680    6.6890 C.3    64  ASN64       0.1155
     55  CG        -6.9350    2.5100    7.4340 C.2    64  ASN64       0.2627
     56  OD1       -5.9570    3.2480    7.1670 O.2    64  ASN64      -0.2716
     57  ND2       -6.8940    1.5610    8.3710 N.am   64  ASN64      -0.0877
     58  N        -13.8560    8.3020   12.9900 N.3    88  ILE88      -0.1231
     59  CA       -12.9700    8.6720   11.8720 C.3    88  ILE88       0.1692
     60  C        -12.6560    7.5210   10.8970 C.2    88  ILE88       0.2591
     61  O        -12.5230    7.7360    9.7010 O.2    88  ILE88      -0.2718
     62  CB       -11.6670    9.4210   12.3410 C.3    88  ILE88       0.0266
     63  CG1      -10.7900    9.8060   11.1250 C.3    88  ILE88       0.0019
     64  CG2      -10.8990    8.6620   13.4110 C.3    88  ILE88       0.0020
     65  CD1       -9.7850   10.9400   11.4380 C.3    88  ILE88       0.0001
     66  N        -12.5740    6.2970   11.4010 N.am   89  GLN89      -0.1979
     67  CA       -12.2550    5.1810   10.5250 C.3    89  GLN89       0.1601
     68  C        -12.4540    3.8840   11.2660 C.2    89  GLN89       0.2287
     69  O        -12.5530    3.8870   12.4820 O.2    89  GLN89      -0.2864
     70  CB       -10.8430    5.2880    9.9430 C.3    89  GLN89       0.0394
     71  CG        -9.6940    5.0950   10.9330 C.3    89  GLN89       0.0908
     72  CD        -9.0220    3.7270   10.8380 C.2    89  GLN89       0.2608
     73  OE1       -9.4370    2.7610   11.4760 O.2    89  GLN89      -0.2717
     74  NE2       -7.9830    3.6420   10.0230 N.am   89  GLN89      -0.0878
     75  N        -11.0310   -0.4800   10.9810 N.3    91  HIS91      -0.1241
     76  CA       -10.1370   -1.4290   10.3500 C.3    91  HIS91       0.1621
     77  C        -10.2340   -2.6890   11.1630 C.2    91  HIS91       0.2264
     78  O        -10.8610   -2.7180   12.2460 O.2    91  HIS91      -0.2867
     79  CB        -8.6840   -0.9330   10.3390 C.3    91  HIS91       0.0745
     80  CG        -8.1420   -0.6980   11.7110 C.ar   91  HIS91       0.0817
     81  ND1       -8.2300    0.5180   12.3460 N.ar   91  HIS91      -0.2268
     82  CD2       -7.5630   -1.5490   12.5960 C.ar   91  HIS91       0.1154
     83  CE1       -7.6920    0.4200   13.5510 C.ar   91  HIS91       0.1986
     84  NE2       -7.2830   -0.8280   13.7260 N.ar   91  HIS91      -0.2212
     85  N         -8.0460   -6.4350   12.4830 N.3    93  HIS93      -0.1241
     86  CA        -6.8410   -7.2730   12.6160 C.3    93  HIS93       0.1621
     87  C         -7.2990   -8.7150   12.5120 C.2    93  HIS93       0.2264
     88  O         -8.3500   -9.0630   13.0570 O.2    93  HIS93      -0.2867
     89  CB        -6.1530   -7.0170   13.9720 C.3    93  HIS93       0.0745
     90  CG        -5.8320   -5.5720   14.2240 C.ar   93  HIS93       0.0817
     91  ND1       -4.5860   -5.0300   13.9920 N.ar   93  HIS93      -0.2268
     92  CD2       -6.6070   -4.5520   14.6680 C.ar   93  HIS93       0.1154
     93  CE1       -4.6000   -3.7450   14.3150 C.ar   93  HIS93       0.1986
     94  NE2       -5.8100   -3.4290   14.7360 N.ar   93  HIS93      -0.2212
     95  N        -11.7670   -2.6490   14.8500 N.3   116  HIS116     -0.1241
     96  CA       -11.5530   -1.4550   15.6150 C.3   116  HIS116      0.1621
     97  C        -12.2430   -0.2960   14.9320 C.2   116  HIS116      0.2264
     98  O        -11.9480   -0.0310   13.7820 O.2   116  HIS116     -0.2867
     99  CB       -10.0460   -1.1930   15.7220 C.3   116  HIS116      0.0745
    100  CG        -9.3370   -2.1520   16.6350 C.ar  116  HIS116      0.0817
    101  ND1       -7.9760   -2.3640   16.5940 N.ar  116  HIS116     -0.2268
    102  CD2       -9.8090   -2.9470   17.6210 C.ar  116  HIS116      0.1154
    103  CE1       -7.6470   -3.2750   17.4890 C.ar  116  HIS116      0.1986
    104  NE2       -8.7370   -3.6310   18.1380 N.ar  116  HIS116     -0.2212
    105  N        -12.5510    3.5950   15.2720 N.3   118  VAL118     -0.1245
    106  CA       -11.6880    4.5780   15.8940 C.3   118  VAL118      0.1561
    107  C        -12.3950    5.9390   15.9240 C.2   118  VAL118      0.2260
    108  O        -12.9030    6.3960   14.9050 O.2   118  VAL118     -0.2867
    109  CB       -10.2950    4.6610   15.2120 C.3   118  VAL118      0.0252
    110  CG1       -9.4050    5.6740   15.9490 C.3   118  VAL118      0.0019
    111  CG2       -9.6040    3.2950   15.1850 C.3   118  VAL118      0.0019
    112  N         -8.1680   15.1810   14.8340 N.3   127  PHE127     -0.1241
    113  CA        -7.6000   13.9070   15.2270 C.3   127  PHE127      0.1605
    114  C         -6.1620   14.0700   15.7190 C.2   127  PHE127      0.2264
    115  O         -5.7580   13.4610   16.7190 O.2   127  PHE127     -0.2867
    116  CB        -7.6190   12.9260   14.0620 C.3   127  PHE127      0.0534
    117  CG        -6.9850   11.6070   14.3800 C.ar  127  PHE127     -0.0203
    118  CD1       -5.6690   11.3480   14.0130 C.ar  127  PHE127     -0.0042
    119  CD2       -7.7000   10.6320   15.0420 C.ar  127  PHE127     -0.0042
    120  CE1       -5.0760   10.1170   14.2970 C.ar  127  PHE127     -0.0003
    121  CE2       -7.1100    9.4050   15.3500 C.ar  127  PHE127     -0.0003
    122  CZ        -5.7860    9.1560   14.9920 C.ar  127  PHE127     -0.0000
    123  N        -11.6630    3.7250   21.2250 N.3   139  VAL139     -0.1245
    124  CA       -11.7600    2.6960   20.1780 C.3   139  VAL139      0.1561
    125  C        -12.7660    1.6660   20.6360 C.2   139  VAL139      0.2260
    126  O        -12.6540    1.0970   21.7470 O.2   139  VAL139     -0.2867
    127  CB       -10.3770    2.0640   19.7530 C.3   139  VAL139      0.0252
    128  CG1      -10.5230    1.1240   18.4740 C.3   139  VAL139      0.0019
    129  CG2       -9.3750    3.1320   19.4770 C.3   139  VAL139      0.0019
    130  N         -2.9970    3.1610   21.2180 N.3   194  LEU194     -0.1231
    131  CA        -2.9550    2.5720   19.8700 C.3   194  LEU194      0.1693
    132  C         -2.1950    1.2340   19.9140 C.2   194  LEU194      0.2593
    133  O         -1.1820    1.1040   20.6520 O.2   194  LEU194     -0.2718
    134  CB        -2.2800    3.5300   18.8690 C.3   194  LEU194      0.0284
    135  CG        -2.9770    4.9100   18.7680 C.3   194  LEU194      0.0019
    136  CD1       -2.1390    5.9030   17.9410 C.3   194  LEU194      0.0001
    137  CD2       -4.3650    4.7730   18.2080 C.3   194  LEU194      0.0001
    138  N         -2.6630    0.2340   19.1580 N.am  195  THR195     -0.1939
    139  CA        -1.9460   -1.0620   19.1050 C.3   195  THR195      0.2028
    140  C         -0.9160   -1.1390   17.9810 C.2   195  THR195      0.2643
    141  O         -0.2490   -2.1650   17.7820 O.2   195  THR195     -0.2714
    142  CB        -2.9080   -2.2260   18.9180 C.3   195  THR195      0.1808
    143  OG1       -3.5130   -2.1300   17.6170 O.3   195  THR195     -0.2208
    144  CG2       -3.9900   -2.2420   20.0530 C.3   195  THR195      0.0379
    145  N         -0.7920   -0.0520   17.2260 N.am  196  THR196     -0.1937
    146  CA         0.2820    0.0620   16.2590 C.3   196  THR196      0.2013
    147  C          1.1250    1.2900   16.5450 C.2   196  THR196      0.2484
    148  O          0.6550    2.2430   17.2100 O.2   196  THR196     -0.2729
    149  CB        -0.2290    0.2410   14.8120 C.3   196  THR196      0.1807
    150  OG1       -1.1190    1.3580   14.7520 O.3   196  THR196     -0.2208
    151  CG2       -0.8850   -1.0010   14.2780 C.3   196  THR196      0.0379
    152  N          2.3700    1.2820   16.0400 N.am  197  PRO197     -0.2715
    153  CA         3.2080    2.4830   16.1160 C.3   197  PRO197      0.1521
    154  C          2.4070    3.6280   15.5920 C.2   197  PRO197      0.2440
    155  O          1.7030    3.4610   14.5820 O.2   197  PRO197     -0.2731
    156  CB         4.3760    2.1210   15.1950 C.3   197  PRO197      0.0310
    157  CG         4.5460    0.6510   15.4580 C.3   197  PRO197      0.0237
    158  CD         3.1120    0.1490   15.4360 C.3   197  PRO197      0.0939
    159  N          2.5080    4.8070   16.2230 N.am  198  PRO198     -0.2727
    160  CA         3.3970    5.2220   17.3090 C.3   198  PRO198      0.1402
    161  C          2.9570    4.8000   18.7180 C.2   198  PRO198      0.2269
    162  O          3.5260    5.2760   19.6940 O.2   198  PRO198     -0.2865
    163  CB         3.4280    6.7510   17.1600 C.3   198  PRO198      0.0296
    164  CG         2.1330    7.0910   16.4970 C.3   198  PRO198      0.0237
    165  CD         1.6780    5.9230   15.7230 C.3   198  PRO198      0.0939
    166  N        -10.4760    2.2250   25.7370 N.3   205  TRP205     -0.1241
    167  CA       -10.8640    1.0480   25.0000 C.3   205  TRP205      0.1605
    168  C        -12.1910    0.6160   25.5080 C.2   205  TRP205      0.2264
    169  O        -12.4500    0.6180   26.7190 O.2   205  TRP205     -0.2867
    170  CB        -9.8280   -0.0700   25.1670 C.3   205  TRP205      0.0550
    171  CG        -8.7070    0.0200   24.1720 C.ar  205  TRP205      0.0003
    172  CD1       -7.4270    0.5110   24.3810 C.ar  205  TRP205      0.0946
    173  CD2       -8.7600   -0.3940   22.7970 C.ar  205  TRP205      0.0152
    174  NE1       -6.7210    0.4540   23.2050 N.ar  205  TRP205     -0.2442
    175  CE2       -7.5020   -0.1210   22.2280 C.ar  205  TRP205      0.0810
    176  CE3       -9.7690   -0.9670   21.9890 C.ar  205  TRP205      0.0012
    177  CZ2       -7.2010   -0.4350   20.8820 C.ar  205  TRP205      0.0191
    178  CZ3       -9.4920   -1.2430   20.6560 C.ar  205  TRP205      0.0001
    179  CH2       -8.2130   -0.9670   20.1080 C.ar  205  TRP205      0.0015
@<TRIPOS>BOND
     1    27    28    1
     2    28    29    1
     3    28    31    1
     4    29    30    2
     5    53    52    2
     6    31    32    1
     7    48    47    2
     8    52    51    1
     9    50    51    1
    10    47    46    1
    11    35    36    1
    12    33    32    2
    13    32    34   am
    14    51    54    1
    15    54    55    1
    16    56    55    2
    17    46    45    1
    18    46    49    1
    19    45    37   am
    20    55    57   am
    21    36    37    1
    22    36    39    1
    23    37    38    2
    24    44    42   ar
    25    44    43   ar
    26    42    40   ar
    27    43    41   ar
    28    40    41   ar
    29    40    39    1
    30     4     3    2
    31    61    60    2
    32    70    67    1
    33    70    71    1
    34    74    72   am
    35    79    76    1
    36    79    80    1
    37    76    75    1
    38    76    77    1
    39     1     2    1
    40     3     2    1
    41    67    68    1
    42    67    66    1
    43    15    16    1
    44    72    71    1
    45    72    73    2
    46    60    66   am
    47    60    59    1
    48    21    23   ar
    49    21    20   ar
    50    63    65    1
    51    63    62    1
    52    77    78    2
    53     2     5    1
    54    68    69    2
    55    17    16    1
    56    17    18    2
    57    19    16    1
    58    19    20    1
    59    23    25   ar
    60     9    10   ar
    61     9     7   ar
    62    12    10   ar
    63    12    14   ar
    64    80    81   ar
    65    80    82   ar
    66    10     8   ar
    67     7     6   ar
    68    14    13   ar
    69    59    62    1
    70    59    58    1
    71    20    22   ar
    72     8     6   ar
    73     8    11   ar
    74     6     5    1
    75    13    11   ar
    76    62    64    1
    77    81    83   ar
    78    85    86    1
    79    87    86    1
    80    87    88    2
    81    82    84   ar
    82    86    89    1
    83    25    26    1
    84    25    24   ar
    85    22    24   ar
    86    83    84   ar
    87    98    97    2
    88    89    90    1
    89    91    90   ar
    90    91    93   ar
    91   118   120   ar
    92   118   117   ar
    93   116   117    1
    94   116   113    1
    95    90    92   ar
    96   151   149    1
    97   120   122   ar
    98    93    94   ar
    99   117   119   ar
   100   155   154    2
   101    92    94   ar
   102   150   149    1
   103   149   146    1
   104   112   113    1
   105    95    96    1
   106   108   107    2
   107    97    96    1
   108   122   121   ar
   109   119   121   ar
   110   111   109    1
   111   156   157    1
   112   156   153    1
   113   109   106    1
   114   109   110    1
   115   113   114    1
   116   105   106    1
   117   158   157    1
   118   158   152    1
   119   154   153    1
   120   154   159   am
   121    96    99    1
   122   114   115    2
   123    99   100    1
   124   165   159    1
   125   165   164    1
   126   106   107    1
   127   152   153    1
   128   152   147   am
   129   159   160    1
   130   146   147    1
   131   146   145    1
   132   164   163    1
   133   147   148    2
   134   101   100   ar
   135   101   103   ar
   136   100   102   ar
   137   163   160    1
   138   145   140   am
   139   160   161    1
   140   103   104   ar
   141   143   142    1
   142   102   104   ar
   143   141   140    2
   144   136   135    1
   145   140   139    1
   146   137   135    1
   147   128   127    1
   148   161   162    2
   149   135   134    1
   150   134   131    1
   151   142   139    1
   152   142   144    1
   153   139   138    1
   154   138   132   am
   155   129   127    1
   156   127   124    1
   157   131   132    1
   158   131   130    1
   159   132   133    2
   160   179   178   ar
   161   179   177   ar
   162   124   125    1
   163   124   123    1
   164   125   126    2
   165   178   176   ar
   166   177   175   ar
   167   176   173   ar
   168   175   173   ar
   169   175   174   ar
   170   173   171   ar
   171   174   172   ar
   172   171   172   ar
   173   171   170    1
   174   167   170    1
   175   167   168    1
   176   167   166    1
   177   168   169    2
