@<TRIPOS>MOLECULE
tmp/2h16D00.pdb
 107 102 0 0 0
SMALL
GASTEIGER

@<TRIPOS>ATOM
      1  N        -40.0540   17.2500  -22.0440 N.3    11  ASP11      -0.1225
      2  CA       -39.3790   18.2310  -22.8810 C.3    11  ASP11       0.1805
      3  C        -39.1020   19.5210  -22.1110 C.2    11  ASP11       0.2598
      4  O        -39.9300   19.9770  -21.2900 O.2    11  ASP11      -0.2718
      5  CB       -40.2080   18.5350  -24.1560 C.3    11  ASP11       0.1424
      6  CG       -40.0590   17.4580  -25.2210 C.2    11  ASP11       0.3668
      7  OD1      -38.9170   16.9980  -25.4480 O.co2  11  ASP11      -0.2456
      8  OD2      -41.0910   17.0770  -25.8140 O.co2  11  ASP11      -0.2456
      9  N        -37.9320   20.1040  -22.3690 N.am   12  ASN12      -0.1960
     10  CA       -37.5320   21.3910  -21.7610 C.3    12  ASN12       0.1819
     11  C        -37.0330   21.2440  -20.3110 C.2    12  ASN12       0.2621
     12  O        -36.7320   22.2440  -19.6680 O.2    12  ASN12      -0.2715
     13  CB       -38.6670   22.4390  -21.8350 C.3    12  ASN12       0.1195
     14  CG       -38.1570   23.8910  -21.7430 C.2    12  ASN12       0.2630
     15  OD1      -37.2170   24.2700  -22.4300 O.2    12  ASN12      -0.2716
     16  ND2      -38.8100   24.7100  -20.9150 N.am   12  ASN12      -0.0877
     17  N        -36.9510   20.0050  -19.8160 N.am   13  ALA13      -0.1963
     18  CA       -36.4450   19.7220  -18.4380 C.3    13  ALA13       0.1728
     19  C        -34.9430   20.0350  -18.2480 C.2    13  ALA13       0.2617
     20  O        -34.5270   20.5270  -17.1850 O.2    13  ALA13      -0.2715
     21  CB       -36.7640   18.2600  -18.0330 C.3    13  ALA13       0.0334
     22  N        -34.1410   19.7510  -19.2790 N.am   14  GLY14      -0.1940
     23  CA       -32.7050   20.0010  -19.2700 C.3    14  GLY14       0.2014
     24  C        -31.9040   18.7420  -19.5960 C.2    14  GLY14       0.2639
     25  O        -30.7230   18.6500  -19.2540 O.2    14  GLY14      -0.2714
     26  N        -32.5200   17.7710  -20.2740 N.am   15  LYS15      -0.1963
     27  CA       -31.8170   16.5010  -20.5530 C.3    15  LYS15       0.1728
     28  C        -30.5970   16.6810  -21.4420 C.2    15  LYS15       0.2617
     29  O        -29.5320   16.1190  -21.1660 O.2    15  LYS15      -0.2715
     30  CB       -32.7470   15.4610  -21.1490 C.3    15  LYS15       0.0311
     31  CG       -33.9580   15.0720  -20.2710 C.3    15  LYS15       0.0038
     32  CD       -34.7870   13.9720  -20.9800 C.3    15  LYS15       0.0206
     33  CE       -35.4830   14.4520  -22.3310 C.3    15  LYS15       0.1093
     34  NZ       -36.2410   15.7760  -22.1860 N.3    15  LYS15      -0.1314
     35  N        -30.7470   17.4600  -22.5190 N.am   16  THR16      -0.1937
     36  CA       -29.6450   17.6730  -23.4540 C.3    16  THR16       0.2028
     37  C        -28.4810   18.4040  -22.7780 C.2    16  THR16       0.2642
     38  O        -27.3360   17.9990  -22.9220 O.2    16  THR16      -0.2714
     39  CB       -30.1000   18.4720  -24.6940 C.3    16  THR16       0.1808
     40  OG1      -31.2250   17.8170  -25.2910 O.3    16  THR16      -0.2208
     41  CG2      -28.9560   18.5890  -25.7180 C.3    16  THR16       0.0379
     42  N        -28.8090   19.4760  -22.0570 N.am   17  THR17      -0.1950
     43  CA       -27.8260   20.3040  -21.3590 C.3    17  THR17       0.1897
     44  C        -27.0800   19.5090  -20.2910 C.2    17  THR17       0.2313
     45  O        -25.8590   19.6350  -20.1750 O.2    17  THR17      -0.2863
     46  CB       -28.4740   21.5520  -20.7540 C.3    17  THR17       0.1794
     47  OG1      -29.3770   22.1150  -21.7080 O.3    17  THR17      -0.2208
     48  CG2      -27.4050   22.6090  -20.3550 C.3    17  THR17       0.0378
     49  N        -29.7920    9.7220  -24.0330 N.3    48  ASP48      -0.1239
     50  CA       -30.8180   10.7470  -23.8630 C.3    48  ASP48       0.1674
     51  C        -32.0060   10.3690  -24.7370 C.2    48  ASP48       0.2266
     52  O        -31.9570   10.5100  -25.9550 O.2    48  ASP48      -0.2867
     53  CB       -30.2870   12.1500  -24.2150 C.3    48  ASP48       0.1410
     54  CG       -31.3840   13.2450  -24.1730 C.2    48  ASP48       0.3668
     55  OD1      -31.0880   14.3930  -24.5790 O.co2  48  ASP48      -0.2456
     56  OD2      -32.5350   12.9710  -23.7460 O.co2  48  ASP48      -0.2456
     57  N        -33.6190   20.0310  -11.6180 N.3   102  ASN102     -0.1225
     58  CA       -32.8860   20.9810  -12.4300 C.3   102  ASN102      0.1785
     59  C        -33.4910   22.3870  -12.4540 C.2   102  ASN102      0.2597
     60  O        -34.6190   22.6150  -12.0080 O.2   102  ASN102     -0.2718
     61  CB       -32.7430   20.4080  -13.8640 C.3   102  ASN102      0.1169
     62  CG       -31.7400   21.1800  -14.7150 C.2   102  ASN102      0.2627
     63  OD1      -30.6570   21.5910  -14.2450 O.2   102  ASN102     -0.2716
     64  ND2      -32.0920   21.3770  -15.9770 N.am  102  ASN102     -0.0877
     65  N        -32.7110   23.3410  -12.9470 N.am  103  LYS103     -0.1980
     66  CA       -33.0990   24.7580  -13.0100 C.3   103  LYS103      0.1596
     67  C        -33.3130   25.3490  -11.6080 C.2   103  LYS103      0.2287
     68  O        -34.1360   26.2310  -11.4300 O.2   103  LYS103     -0.2864
     69  CB       -34.3280   25.0020  -13.9160 C.3   103  LYS103      0.0298
     70  CG       -34.3240   24.1960  -15.2050 C.3   103  LYS103      0.0038
     71  CD       -35.2200   24.8680  -16.2790 C.3   103  LYS103      0.0206
     72  CE       -35.1880   24.0100  -17.5390 C.3   103  LYS103      0.1093
     73  NZ       -36.0730   24.5690  -18.5750 N.3   103  LYS103     -0.1314
     74  N        -31.3910   27.3050  -10.2860 N.3   105  ASP105     -0.1225
     75  CA       -30.9360   28.7080  -10.3860 C.3   105  ASP105      0.1805
     76  C        -32.1050   29.7130  -10.4880 C.2   105  ASP105      0.2597
     77  O        -31.9430   30.8940  -10.2080 O.2   105  ASP105     -0.2718
     78  CB       -30.0370   28.8940  -11.6130 C.3   105  ASP105      0.1424
     79  CG       -30.7680   28.5880  -12.9200 C.2   105  ASP105      0.3668
     80  OD1      -31.1130   27.4080  -13.1040 O.co2 105  ASP105     -0.2456
     81  OD2      -31.0120   29.5170  -13.7460 O.co2 105  ASP105     -0.2456
     82  N        -33.2730   29.2340  -10.8970 N.am  106  VAL106     -0.1980
     83  CA       -34.4120   30.1000  -11.1440 C.3   106  VAL106      0.1595
     84  C        -35.1930   30.3870   -9.8560 C.2   106  VAL106      0.2287
     85  O        -35.6260   29.4720   -9.1590 O.2   106  VAL106     -0.2864
     86  CB       -35.3220   29.5000  -12.2480 C.3   106  VAL106      0.0276
     87  CG1      -36.4670   30.4350  -12.6020 C.3   106  VAL106      0.0022
     88  CG2      -34.4910   29.1740  -13.4770 C.3   106  VAL106      0.0022
     89  N        -28.0830   22.8080  -11.5080 N.3   135  CYS135     -0.1221
     90  CA       -28.2430   23.8360  -12.5310 C.3   135  CYS135      0.1808
     91  C        -27.3940   23.4140  -13.7330 C.2   135  CYS135      0.2601
     92  O        -26.1720   23.4460  -13.6790 O.2   135  CYS135     -0.2717
     93  CB       -27.7660   25.1960  -12.0280 C.3   135  CYS135      0.0970
     94  SG       -27.7330   26.4540  -13.3660 S.3   135  CYS135     -0.0800
     95  N        -28.0400   22.9870  -14.7970 N.am  136  ALA136     -0.1965
     96  CA       -27.3230   22.4920  -15.9740 C.3   136  ALA136      0.1728
     97  C        -26.5870   23.6030  -16.7730 C.2   136  ALA136      0.2616
     98  O        -25.6910   23.3130  -17.5680 O.2   136  ALA136     -0.2715
     99  CB       -28.2810   21.6780  -16.8780 C.3   136  ALA136      0.0334
    100  N        -26.9510   24.8670  -16.5610 N.am  137  LEU137     -0.1977
    101  CA       -26.2010   25.9930  -17.1660 C.3   137  LEU137      0.1596
    102  C        -24.7810   26.1280  -16.6010 C.2   137  LEU137      0.2287
    103  O        -23.8970   26.6730  -17.2650 O.2   137  LEU137     -0.2864
    104  CB       -26.9590   27.3200  -17.0240 C.3   137  LEU137      0.0297
    105  CG       -28.3400   27.4500  -17.6540 C.3   137  LEU137      0.0022
    106  CD1      -28.8080   28.8520  -17.4680 C.3   137  LEU137      0.0001
    107  CD2      -28.3090   27.0820  -19.1500 C.3   137  LEU137      0.0001
@<TRIPOS>BOND
     1    52    51    2
     2     8     6   ar
     3    41    39    1
     4     7     6   ar
     5    40    39    1
     6     6     5    1
     7    51    50    1
     8    39    36    1
     9    55    54   ar
    10    53    54    1
    11    53    50    1
    12    54    56   ar
    13     5     2    1
    14    49    50    1
    15    36    37    1
    16    36    35    1
    17    38    37    2
    18     2     3    1
    19     2     1    1
    20    37    42   am
    21    35    28   am
    22    15    14    2
    23     9     3   am
    24     9    10    1
    25    33    34    1
    26    33    32    1
    27     3     4    2
    28    42    43    1
    29    13    10    1
    30    13    14    1
    31    10    11    1
    32    14    16   am
    33    47    46    1
    34    28    29    2
    35    28    27    1
    36    43    46    1
    37    43    44    1
    38    30    27    1
    39    30    31    1
    40    32    31    1
    41    46    48    1
    42    27    26    1
    43    11    17   am
    44    11    12    2
    45    44    45    2
    46    26    24   am
    47    17    18    1
    48    24    23    1
    49    24    25    2
    50    22    23    1
    51    22    19   am
    52   107   105    1
    53    73    72    1
    54    18    19    1
    55    18    21    1
    56    19    20    2
    57   105   106    1
    58   105   104    1
    59    98    97    2
    60    72    71    1
    61   103   102    2
    62   101   104    1
    63   101   102    1
    64   101   100    1
    65    99    96    1
    66    97   100   am
    67    97    96    1
    68    71    70    1
    69    64    62   am
    70    96    95    1
    71    70    69    1
    72    95    91   am
    73    62    63    2
    74    62    61    1
    75    69    66    1
    76    61    58    1
    77    81    79   ar
    78    91    92    2
    79    91    90    1
    80    88    86    1
    81    94    93    1
    82    80    79   ar
    83    66    65    1
    84    66    67    1
    85    65    59   am
    86    79    78    1
    87    87    86    1
    88    90    93    1
    89    90    89    1
    90    59    58    1
    91    59    60    2
    92    58    57    1
    93    86    83    1
    94    78    75    1
    95    67    68    2
    96    83    82    1
    97    83    84    1
    98    82    76   am
    99    76    75    1
   100    76    77    2
   101    75    74    1
   102    84    85    2
