@<TRIPOS>MOLECULE
tmp/2h18A00.pdb
 127 122 0 0 0
SMALL
GASTEIGER

@<TRIPOS>ATOM
      1  N        -19.7750   -0.5900   48.0750 N.3    27  GLN27      -0.1231
      2  CA       -18.4830   -1.1400   48.4380 C.3    27  GLN27       0.1698
      3  C        -17.5810   -1.1260   47.1800 C.2    27  GLN27       0.2592
      4  O        -18.0680   -1.2840   46.0550 O.2    27  GLN27      -0.2718
      5  CB       -18.6570   -2.5500   49.0270 C.3    27  GLN27       0.0381
      6  CG       -17.3680   -3.2780   49.3450 C.3    27  GLN27       0.0905
      7  CD       -17.5690   -4.4370   50.3070 C.2    27  GLN27       0.2608
      8  OE1      -16.9590   -4.4830   51.3870 O.2    27  GLN27      -0.2717
      9  NE2      -18.4380   -5.3520   49.9430 N.am   27  GLN27      -0.0878
     10  N        -16.2840   -0.9260   47.4170 N.am   28  TYR28      -0.1962
     11  CA       -15.2090   -0.8390   46.4160 C.3    28  TYR28       0.1771
     12  C        -15.1670    0.4910   45.6290 C.2    28  TYR28       0.2620
     13  O        -14.4010    0.6120   44.6800 O.2    28  TYR28      -0.2715
     14  CB       -15.1770   -2.0540   45.4380 C.3    28  TYR28       0.0574
     15  CG       -15.3320   -3.4210   46.0870 C.ar   28  TYR28      -0.0198
     16  CD1      -14.4470   -3.8710   47.0950 C.ar   28  TYR28      -0.0009
     17  CD2      -16.3530   -4.2780   45.6740 C.ar   28  TYR28      -0.0009
     18  CE1      -14.6200   -5.1410   47.6910 C.ar   28  TYR28       0.0417
     19  CE2      -16.5280   -5.5220   46.2470 C.ar   28  TYR28       0.0417
     20  CZ       -15.6700   -5.9550   47.2450 C.ar   28  TYR28       0.1957
     21  OH       -15.8900   -7.2070   47.7750 O.3    28  TYR28      -0.2866
     22  N        -15.9950    1.4780   46.0120 N.am   29  SER29      -0.1936
     23  CA       -15.9980    2.7610   45.3070 C.3    29  SER29       0.2055
     24  C        -14.7310    3.6130   45.6190 C.2    29  SER29       0.2644
     25  O        -14.3840    4.5160   44.8500 O.2    29  SER29      -0.2714
     26  CB       -17.2900    3.5470   45.5710 C.3    29  SER29       0.2130
     27  OG       -17.5180    3.7490   46.9610 O.3    29  SER29      -0.2179
     28  N        -14.0570    3.3070   46.7350 N.am   30  GLY30      -0.1939
     29  CA       -12.7910    3.9960   47.1170 C.3    30  GLY30       0.2014
     30  C        -12.9020    4.8380   48.3800 C.2    30  GLY30       0.2639
     31  O        -12.0710    5.7250   48.6150 O.2    30  GLY30      -0.2714
     32  N        -13.9140    4.5700   49.2010 N.am   31  LYS31      -0.1963
     33  CA       -14.1520    5.3870   50.4340 C.3    31  LYS31       0.1728
     34  C        -13.0570    5.2510   51.4890 C.2    31  LYS31       0.2617
     35  O        -12.5990    6.2430   52.0320 O.2    31  LYS31      -0.2715
     36  CB       -15.5030    5.0410   51.0490 C.3    31  LYS31       0.0311
     37  CG       -16.6900    5.2770   50.1010 C.3    31  LYS31       0.0038
     38  CD       -18.1100    4.9480   50.7750 C.3    31  LYS31       0.0206
     39  CE       -18.2170    3.4900   51.2420 C.3    31  LYS31       0.1093
     40  NZ       -18.0770    2.4730   50.0940 N.3    31  LYS31      -0.1314
     41  N        -12.6340    4.0160   51.7730 N.am   32  THR32      -0.1937
     42  CA       -11.5350    3.7940   52.7120 C.3    32  THR32       0.2028
     43  C        -10.2680    4.4490   52.1730 C.2    32  THR32       0.2642
     44  O         -9.5190    5.0780   52.9290 O.2    32  THR32      -0.2714
     45  CB       -11.2780    2.2940   52.9610 C.3    32  THR32       0.1808
     46  OG1      -12.4950    1.6600   53.3950 O.3    32  THR32      -0.2208
     47  CG2      -10.1800    2.1090   54.0120 C.3    32  THR32       0.0379
     48  N        -10.0320    4.2900   50.8680 N.am   33  THR33      -0.1950
     49  CA        -8.8470    4.8890   50.2100 C.3    33  THR33       0.1897
     50  C         -8.8550    6.4300   50.3510 C.2    33  THR33       0.2313
     51  O         -7.8410    7.0410   50.6890 O.2    33  THR33      -0.2863
     52  CB        -8.7170    4.4160   48.7250 C.3    33  THR33       0.1794
     53  OG1       -8.7600    2.9810   48.6840 O.3    33  THR33      -0.2208
     54  CG2       -7.4070    4.9000   48.0990 C.3    33  THR33       0.0378
     55  N        -18.5960    2.8190   60.3790 N.3    51  ARG51      -0.1245
     56  CA       -17.3940    3.2720   61.0410 C.3    51  ARG51       0.1563
     57  C        -17.4870    4.7300   61.3990 C.2    51  ARG51       0.2260
     58  O        -17.8630    5.5610   60.5670 O.2    51  ARG51      -0.2867
     59  CB       -16.1990    3.0480   60.1330 C.3    51  ARG51       0.0307
     60  CG       -15.7700    1.6090   60.1160 C.3    51  ARG51       0.0489
     61  CD       -14.7860    1.3770   59.0050 C.3    51  ARG51       0.2205
     62  NE       -15.4430    1.1910   57.7450 N.pl3  51  ARG51      -0.0865
     63  CZ       -14.8120    1.1750   56.5680 C.cat  51  ARG51       0.5346
     64  NH1      -13.4480    1.3450   56.4620 N.pl3  51  ARG51       0.1354
     65  NH2      -15.5350    0.9960   55.5190 N.pl3  51  ARG51       0.1354
     66  N        -20.8540    1.3730   53.9820 N.3    64  ASP64      -0.1239
     67  CA       -21.1690    0.8380   52.6670 C.3    64  ASP64       0.1674
     68  C        -22.7050    0.7150   52.5270 C.2    64  ASP64       0.2266
     69  O        -23.3830    0.1320   53.3830 O.2    64  ASP64      -0.2867
     70  CB       -20.4940   -0.5340   52.4470 C.3    64  ASP64       0.1410
     71  CG       -18.9670   -0.4550   52.5020 C.2    64  ASP64       0.3668
     72  OD1      -18.3780    0.3130   51.7030 O.co2  64  ASP64      -0.2456
     73  OD2      -18.3660   -1.1810   53.3420 O.co2  64  ASP64      -0.2456
     74  N        -15.0780    8.6850   41.5490 N.3   123  ASN123     -0.1225
     75  CA       -13.7190    8.3030   41.8550 C.3   123  ASN123      0.1785
     76  C        -13.1220    7.4260   40.7450 C.2   123  ASN123      0.2597
     77  O        -13.8450    6.9140   39.8750 O.2   123  ASN123     -0.2718
     78  CB       -13.6780    7.6440   43.2480 C.3   123  ASN123      0.1169
     79  CG       -12.2610    7.3290   43.7260 C.2   123  ASN123      0.2627
     80  OD1      -11.3260    8.0950   43.5030 O.2   123  ASN123     -0.2716
     81  ND2      -12.1050    6.1730   44.3800 N.am  123  ASN123     -0.0877
     82  N        -11.7970    7.2770   40.7740 N.am  124  LYS124     -0.1980
     83  CA       -11.0600    6.4190   39.8420 C.3   124  LYS124      0.1596
     84  C        -11.0370    6.9670   38.3990 C.2   124  LYS124      0.2287
     85  O        -10.9610    6.2010   37.4220 O.2   124  LYS124     -0.2864
     86  CB       -11.5650    4.9620   39.8780 C.3   124  LYS124      0.0298
     87  CG       -11.8230    4.3710   41.2990 C.3   124  LYS124      0.0038
     88  CD       -11.8250    2.8420   41.2580 C.3   124  LYS124      0.0206
     89  CE       -12.3770    2.2300   42.5590 C.3   124  LYS124      0.1093
     90  NZ       -12.4530    0.7490   42.4360 N.3   124  LYS124     -0.1314
     91  N         -8.6560    8.1310   36.9940 N.3   126  ASP126     -0.1225
     92  CA        -7.3640    7.6900   36.3950 C.3   126  ASP126      0.1805
     93  C         -7.4980    6.4800   35.4640 C.2   126  ASP126      0.2597
     94  O         -6.6820    6.2940   34.5530 O.2   126  ASP126     -0.2718
     95  CB        -6.3340    7.3780   37.4870 C.3   126  ASP126      0.1424
     96  CG        -6.8280    6.3250   38.4750 C.2   126  ASP126      0.3668
     97  OD1       -7.6550    6.6700   39.3760 O.co2 126  ASP126     -0.2456
     98  OD2       -6.3960    5.1610   38.3400 O.co2 126  ASP126     -0.2456
     99  N         -8.5190    5.6620   35.6840 N.am  127  LEU127     -0.1979
    100  CA        -8.7210    4.4550   34.8570 C.3   127  LEU127      0.1596
    101  C         -9.3050    4.8290   33.5070 C.2   127  LEU127      0.2287
    102  O        -10.2510    5.6050   33.4520 O.2   127  LEU127     -0.2864
    103  CB        -9.6080    3.4300   35.5780 C.3   127  LEU127      0.0297
    104  CG        -9.0570    2.8860   36.8990 C.3   127  LEU127      0.0022
    105  CD1      -10.1120    2.0640   37.6130 C.3   127  LEU127      0.0001
    106  CD2       -7.7360    2.0800   36.7000 C.3   127  LEU127      0.0001
    107  N         -9.5020   11.3500   41.5770 N.3   156  SER156     -0.1202
    108  CA        -8.7260   10.1290   41.6980 C.3   156  SER156      0.2020
    109  C         -8.0420   10.1210   43.0670 C.2   156  SER156      0.2619
    110  O         -7.1930   10.9610   43.3390 O.2   156  SER156     -0.2717
    111  CB        -7.6570   10.0370   40.5780 C.3   156  SER156      0.2103
    112  OG        -6.9190    8.8260   40.6840 O.3   156  SER156     -0.2182
    113  N         -8.4130    9.1710   43.9240 N.am  157  CYS157     -0.1955
    114  CA        -7.6950    8.9510   45.1800 C.3   157  CYS157      0.1843
    115  C         -6.2520    8.4600   44.9640 C.2   157  CYS157      0.2625
    116  O         -5.3250    8.8710   45.6770 O.2   157  CYS157     -0.2714
    117  CB        -8.4690    7.9720   46.0550 C.3   157  CYS157      0.0997
    118  SG       -10.0220    8.6700   46.6010 S.3   157  CYS157     -0.0797
    119  N         -6.0730    7.6060   43.9570 N.am  158  LYS158     -0.1977
    120  CA        -4.7870    7.0070   43.6410 C.3   158  LYS158      0.1596
    121  C         -3.8190    8.0640   43.1280 C.2   158  LYS158      0.2287
    122  O         -2.6690    8.1240   43.5740 O.2   158  LYS158     -0.2864
    123  CB        -4.9760    5.8760   42.6160 C.3   158  LYS158      0.0298
    124  CG        -3.7120    5.0400   42.3110 C.3   158  LYS158      0.0038
    125  CD        -3.8930    4.2610   41.0110 C.3   158  LYS158      0.0206
    126  CE        -2.5380    3.9070   40.3900 C.3   158  LYS158      0.1093
    127  NZ        -2.5510    4.1310   38.9030 N.3   158  LYS158     -0.1314
@<TRIPOS>BOND
     1   102   101    2
     2   101   100    1
     3    94    93    2
     4   100   103    1
     5   100    99    1
     6    93    99   am
     7    93    92    1
     8   103   104    1
     9    92    91    1
    10    92    95    1
    11   106   104    1
    12   104   105    1
    13    85    84    2
    14    95    96    1
    15    98    96   ar
    16    84    83    1
    17    96    97   ar
    18   127   126    1
    19    83    86    1
    20    83    82    1
    21    77    76    2
    22    86    87    1
    23   126   125    1
    24   111   112    1
    25   111   108    1
    26    76    82   am
    27    76    75    1
    28   125   124    1
    29    88    87    1
    30    88    89    1
    31    74    75    1
    32   107   108    1
    33   108   109    1
    34    75    78    1
    35   124   123    1
    36    90    89    1
    37   123   120    1
    38   109   110    2
    39   109   113   am
    40   121   122    2
    41   121   120    1
    42    78    79    1
    43    80    79    2
    44   120   119    1
    45    79    81   am
    46   113   114    1
    47   119   115   am
    48    13    12    2
    49    25    24    2
    50   115   114    1
    51   115   116    2
    52   114   117    1
    53    23    26    1
    54    23    24    1
    55    23    22    1
    56    14    15    1
    57    14    11    1
    58    26    27    1
    59    24    28   am
    60    12    22   am
    61    12    11    1
    62    17    15   ar
    63    17    19   ar
    64     4     3    2
    65   117   118    1
    66    15    16   ar
    67    19    20   ar
    68    11    10    1
    69    28    29    1
    70    16    18   ar
    71    29    30    1
    72     3    10   am
    73     3     2    1
    74    20    18   ar
    75    20    21    1
    76     1     2    1
    77    54    52    1
    78    30    31    2
    79    30    32   am
    80     2     5    1
    81    53    52    1
    82    52    49    1
    83     5     6    1
    84    32    33    1
    85     6     7    1
    86     9     7   am
    87    40    39    1
    88    37    38    1
    89    37    36    1
    90    49    50    1
    91    49    48    1
    92     7     8    2
    93    50    51    2
    94    33    36    1
    95    33    34    1
    96    38    39    1
    97    48    43   am
    98    34    41   am
    99    34    35    2
   100    72    71   ar
   101    41    42    1
   102    43    42    1
   103    43    44    2
   104    70    71    1
   105    70    67    1
   106    71    73   ar
   107    68    67    1
   108    68    69    2
   109    67    66    1
   110    42    45    1
   111    45    46    1
   112    45    47    1
   113    65    63    1
   114    64    63    1
   115    63    62    2
   116    62    61    1
   117    61    60    1
   118    60    59    1
   119    59    56    1
   120    55    56    1
   121    58    57    2
   122    56    57    1
