@<TRIPOS>MOLECULE
tmp/2h1fB00.pdb
 140 135 0 0 0
SMALL
GASTEIGER

@<TRIPOS>ATOM
      1  N         32.2460   38.9300   43.3250 N.3    10  SER10      -0.1202
      2  CA        33.3000   38.6370   44.2650 C.3    10  SER10       0.2020
      3  C         32.6670   38.9240   45.5940 C.2    10  SER10       0.2618
      4  O         32.2350   40.0470   45.8450 O.2    10  SER10      -0.2717
      5  CB        34.5250   39.5190   44.0730 C.3    10  SER10       0.2103
      6  OG        35.5160   39.1510   45.0270 O.3    10  SER10      -0.2182
      7  N         32.5860   37.8950   46.4270 N.am   11  MET11      -0.1979
      8  CA        32.0080   38.0410   47.7450 C.3    11  MET11       0.1605
      9  C         32.7800   39.1390   48.4520 C.2    11  MET11       0.2287
     10  O         32.2020   39.9760   49.1420 O.2    11  MET11      -0.2864
     11  CB        32.1280   36.7360   48.5200 C.3    11  MET11       0.0413
     12  CG        31.3880   36.7360   49.8380 C.3    11  MET11       0.0598
     13  SD        31.7680   35.2620   50.7540 S.3    11  MET11      -0.1393
     14  CE        30.7880   34.0520   49.8870 C.3    11  MET11       0.0692
     15  N         25.7980   35.4060   46.3380 N.3    41  PHE41      -0.1241
     16  CA        26.0540   36.2600   47.4870 C.3    41  PHE41       0.1605
     17  C         24.8480   37.0970   47.8900 C.2    41  PHE41       0.2264
     18  O         24.9550   37.9760   48.7430 O.2    41  PHE41      -0.2867
     19  CB        27.2160   37.2070   47.1680 C.3    41  PHE41       0.0534
     20  CG        28.3230   36.5710   46.3800 C.ar   41  PHE41      -0.0203
     21  CD1       28.9370   35.4080   46.8240 C.ar   41  PHE41      -0.0042
     22  CD2       28.7430   37.1300   45.1820 C.ar   41  PHE41      -0.0042
     23  CE1       29.9600   34.8080   46.0750 C.ar   41  PHE41      -0.0003
     24  CE2       29.7630   36.5400   44.4270 C.ar   41  PHE41      -0.0003
     25  CZ        30.3700   35.3810   44.8720 C.ar   41  PHE41      -0.0000
     26  N         38.7090   26.1220   52.9770 N.3   171  ALA171     -0.1231
     27  CA        38.0480   26.0510   51.6790 C.3   171  ALA171      0.1694
     28  C         38.1700   27.2770   50.7760 C.2   171  ALA171      0.2593
     29  O         37.9670   28.4180   51.1970 O.2   171  ALA171     -0.2718
     30  CB        36.5750   25.7020   51.8780 C.3   171  ALA171      0.0304
     31  N         38.5080   27.0140   49.5200 N.am  172  THR172     -0.1939
     32  CA        38.6370   28.0520   48.5160 C.3   172  THR172      0.2028
     33  C         38.4250   27.4080   47.1550 C.2   172  THR172      0.2642
     34  O         38.1730   26.2050   47.0690 O.2   172  THR172     -0.2714
     35  CB        40.0080   28.7360   48.5600 C.3   172  THR172      0.1808
     36  OG1       40.0350   29.7870   47.5910 O.3   172  THR172     -0.2208
     37  CG2       41.1200   27.7450   48.2710 C.3   172  THR172      0.0379
     38  N         38.5400   28.1960   46.0910 N.am  173  THR173     -0.1950
     39  CA        38.2990   27.6880   44.7450 C.3   173  THR173      0.1897
     40  C         39.4790   27.0770   43.9810 C.2   173  THR173      0.2313
     41  O         39.4130   25.9110   43.5880 O.2   173  THR173     -0.2863
     42  CB        37.6550   28.7920   43.8840 C.3   173  THR173      0.1794
     43  OG1       38.5850   29.8700   43.6990 O.3   173  THR173     -0.2208
     44  CG2       36.4100   29.3320   44.5820 C.3   173  THR173      0.0378
     45  N         45.6640   27.9360   45.8600 N.3   177  LYS177     -0.1245
     46  CA        45.2890   28.8280   46.9490 C.3   177  LYS177      0.1561
     47  C         45.0030   28.0570   48.2160 C.2   177  LYS177      0.2260
     48  O         44.6640   28.6450   49.2340 O.2   177  LYS177     -0.2867
     49  CB        44.0670   29.6700   46.5750 C.3   177  LYS177      0.0271
     50  CG        44.3680   30.7760   45.5690 C.3   177  LYS177      0.0035
     51  CD        43.4590   31.9910   45.7680 C.3   177  LYS177      0.0206
     52  CE        42.0090   31.6560   45.4790 C.3   177  LYS177      0.1093
     53  NZ        41.1020   32.7610   45.8510 N.3   177  LYS177     -0.1314
     54  N         34.4400   24.9410   58.9870 N.3   201  PRO201     -0.2102
     55  CA        33.2750   25.0830   58.1110 C.3   201  PRO201      0.1504
     56  C         33.4830   24.4620   56.7280 C.2   201  PRO201      0.2576
     57  O         34.5870   24.0560   56.3620 O.2   201  PRO201     -0.2718
     58  CB        33.0830   26.5930   58.0420 C.3   201  PRO201      0.0282
     59  CG        34.4740   27.0890   58.0870 C.3   201  PRO201      0.0208
     60  CD        35.1110   26.2420   59.1690 C.3   201  PRO201      0.0893
     61  N         32.3970   24.3800   55.9740 N.am  202  TRP202     -0.1963
     62  CA        32.4280   23.8320   54.6280 C.3   202  TRP202      0.1771
     63  C         31.1340   24.2220   53.9160 C.2   202  TRP202      0.2620
     64  O         30.1290   24.5380   54.5630 O.2   202  TRP202     -0.2715
     65  CB        32.5890   22.3000   54.6610 C.3   202  TRP202      0.0590
     66  CG        31.5500   21.5620   55.4790 C.ar  202  TRP202      0.0006
     67  CD1       31.4490   21.5310   56.8430 C.ar  202  TRP202      0.0946
     68  CD2       30.4850   20.7390   54.9800 C.ar  202  TRP202      0.0152
     69  NE1       30.3940   20.7380   57.2210 N.ar  202  TRP202     -0.2442
     70  CE2       29.7830   20.2400   56.1000 C.ar  202  TRP202      0.0810
     71  CE3       30.0560   20.3750   53.6940 C.ar  202  TRP202      0.0012
     72  CZ2       28.6750   19.3920   55.9750 C.ar  202  TRP202      0.0191
     73  CZ3       28.9530   19.5300   53.5700 C.ar  202  TRP202      0.0001
     74  CH2       28.2770   19.0510   54.7080 C.ar  202  TRP202      0.0015
     75  N         31.1720   24.2210   52.5870 N.am  203  GLY203     -0.1940
     76  CA        29.9970   24.5740   51.8110 C.3   203  GLY203      0.2014
     77  C         29.5400   23.4260   50.9330 C.2   203  GLY203      0.2638
     78  O         28.3400   23.2030   50.7630 O.2   203  GLY203     -0.2714
     79  N         30.5050   22.6920   50.3880 N.am  204  ALA204     -0.1977
     80  CA        30.2290   21.5590   49.5150 C.3   204  ALA204      0.1597
     81  C         30.8820   20.2740   50.0300 C.2   204  ALA204      0.2287
     82  O         31.9350   20.3120   50.6600 O.2   204  ALA204     -0.2864
     83  CB        30.7180   21.8670   48.1070 C.3   204  ALA204      0.0319
     84  N         34.7000   19.2970   50.6850 N.3   207  GLU207     -0.1245
     85  CA        35.3530   20.1270   51.6900 C.3   207  GLU207      0.1567
     86  C         35.0690   19.4970   53.0560 C.2   207  GLU207      0.2260
     87  O         35.9190   19.5220   53.9490 O.2   207  GLU207     -0.2867
     88  CB        34.8060   21.5620   51.6210 C.3   207  GLU207      0.0388
     89  CG        35.0020   22.2110   50.2490 C.3   207  GLU207      0.1160
     90  CD        34.1720   23.4740   50.0350 C.2   207  GLU207      0.3649
     91  OE1       33.0360   23.5520   50.5520 O.co2 207  GLU207     -0.2457
     92  OE2       34.6470   24.3820   49.3210 O.co2 207  GLU207     -0.2457
     93  N         26.0890   24.4420   56.4570 N.3   227  MET227     -0.1230
     94  CA        25.6020   25.7930   56.7040 C.3   227  MET227      0.1702
     95  C         25.5430   26.7060   55.5030 C.2   227  MET227      0.2593
     96  O         26.2530   26.5250   54.5100 O.2   227  MET227     -0.2718
     97  CB        26.4440   26.4920   57.7610 C.3   227  MET227      0.0401
     98  CG        26.1180   26.1180   59.1790 C.3   227  MET227      0.0596
     99  SD        27.1450   27.0940   60.2340 S.3   227  MET227     -0.1393
    100  CE        28.7540   26.5340   59.6430 C.3   227  MET227      0.0692
    101  N         24.6880   27.7110   55.6390 N.am  228  SER228     -0.1938
    102  CA        24.4870   28.7190   54.6230 C.3   228  SER228      0.2055
    103  C         25.4710   29.8310   54.9310 C.2   228  SER228      0.2642
    104  O         26.0880   29.8560   55.9930 O.2   228  SER228     -0.2714
    105  CB        23.0770   29.2890   54.7180 C.3   228  SER228      0.2130
    106  OG        22.9710   30.1130   55.8680 O.3   228  SER228     -0.2179
    107  N         25.5890   30.7670   54.0040 N.am  229  LEU229     -0.1977
    108  CA        26.4860   31.8940   54.1690 C.3   229  LEU229      0.1596
    109  C         26.1920   32.5780   55.5080 C.2   229  LEU229      0.2287
    110  O         27.1040   32.9790   56.2410 O.2   229  LEU229     -0.2864
    111  CB        26.2810   32.8540   53.0040 C.3   229  LEU229      0.0297
    112  CG        27.3970   33.8320   52.6560 C.3   229  LEU229      0.0022
    113  CD1       28.7460   33.1270   52.5990 C.3   229  LEU229      0.0001
    114  CD2       27.0610   34.4560   51.3130 C.3   229  LEU229      0.0001
    115  N         27.5350   30.3450   58.6990 N.3   232  VAL232     -0.1245
    116  CA        28.9720   30.4240   58.8860 C.3   232  VAL232      0.1561
    117  C         29.3690   31.8200   59.3760 C.2   232  VAL232      0.2260
    118  O         30.2640   31.9680   60.2120 O.2   232  VAL232     -0.2867
    119  CB        29.7040   30.0960   57.5810 C.3   232  VAL232      0.0252
    120  CG1       29.5950   31.2550   56.6160 C.3   232  VAL232      0.0019
    121  CG2       31.1470   29.7700   57.8720 C.3   232  VAL232      0.0019
    122  N         40.2510   33.6970   50.5660 N.3   247  THR247     -0.1203
    123  CA        38.9320   33.3660   50.0450 C.3   247  THR247      0.1994
    124  C         37.8020   34.2700   50.5540 C.2   247  THR247      0.2618
    125  O         37.9120   34.8910   51.6090 O.2   247  THR247     -0.2717
    126  CB        38.5730   31.9090   50.3780 C.3   247  THR247      0.1784
    127  OG1       37.3110   31.5820   49.7840 O.3   247  THR247     -0.2211
    128  CG2       38.4880   31.7180   51.8940 C.3   247  THR247      0.0376
    129  N         36.7110   34.3220   49.7920 N.am  248  GLY248     -0.1942
    130  CA        35.5610   35.1390   50.1450 C.3   248  GLY248      0.2014
    131  C         35.2190   35.2290   51.6220 C.2   248  GLY248      0.2638
    132  O         35.1160   36.3310   52.1740 O.2   248  GLY248     -0.2714
    133  N         35.0410   34.0820   52.2730 N.am  249  LEU249     -0.1977
    134  CA        34.7000   34.0700   53.6960 C.3   249  LEU249      0.1596
    135  C         35.7450   34.7730   54.5420 C.2   249  LEU249      0.2287
    136  O         35.4360   35.3020   55.6080 O.2   249  LEU249     -0.2864
    137  CB        34.5180   32.6340   54.1910 C.3   249  LEU249      0.0297
    138  CG        33.2740   31.9450   53.6300 C.3   249  LEU249      0.0022
    139  CD1       33.1100   30.6040   54.2930 C.3   249  LEU249      0.0001
    140  CD2       32.0460   32.8100   53.8790 C.3   249  LEU249      0.0001
@<TRIPOS>BOND
     1     1     2    1
     2    41    40    2
     3    43    42    1
     4    42    44    1
     5    42    39    1
     6    40    39    1
     7     5     2    1
     8     5     6    1
     9     2     3    1
    10    24    25   ar
    11    24    22   ar
    12    39    38    1
    13    25    23   ar
    14    22    20   ar
    15    52    51    1
    16    52    53    1
    17    50    51    1
    18    50    49    1
    19     3     4    2
    20     3     7   am
    21    45    46    1
    22    23    21   ar
    23    38    33   am
    24    15    16    1
    25    20    21   ar
    26    20    19    1
    27     7     8    1
    28    49    46    1
    29    46    47    1
    30    34    33    2
    31    33    32    1
    32    19    16    1
    33    16    17    1
    34    36    35    1
    35     8     9    1
    36     8    11    1
    37    17    18    2
    38    83    80    1
    39    47    48    2
    40    37    35    1
    41     9    10    2
    42    32    35    1
    43    32    31    1
    44    11    12    1
    45    92    90   ar
    46    80    81    1
    47    80    79    1
    48    31    28   am
    49   127   126    1
    50   129   130    1
    51   129   124   am
    52    12    13    1
    53    14    13    1
    54    81    82    2
    55    90    89    1
    56    90    91   ar
    57   123   126    1
    58   123   124    1
    59   123   122    1
    60   130   131    1
    61    89    88    1
    62   126   128    1
    63    79    77   am
    64   124   125    2
    65    84    85    1
    66    78    77    2
    67    28    29    2
    68    28    27    1
    69    77    76    1
    70   114   112    1
    71    88    85    1
    72   131   132    2
    73   131   133   am
    74    27    30    1
    75    27    26    1
    76    85    86    1
    77    76    75    1
    78   133   134    1
    79    75    63   am
    80   113   112    1
    81   112   111    1
    82   111   108    1
    83    86    87    2
    84    73    71   ar
    85    73    74   ar
    86   138   140    1
    87   138   137    1
    88   138   139    1
    89    71    68   ar
    90   134   137    1
    91   134   135    1
    92    63    64    2
    93    63    62    1
    94   107   108    1
    95   107   103   am
    96   108   109    1
    97    96    95    2
    98   135   136    2
    99   102   105    1
   100   102   103    1
   101   102   101    1
   102    62    65    1
   103    62    61    1
   104    65    66    1
   105    74    72   ar
   106   105   106    1
   107   103   104    2
   108    68    66   ar
   109    68    70   ar
   110    66    67   ar
   111    95   101   am
   112    95    94    1
   113   109   110    2
   114    61    56   am
   115    72    70   ar
   116    70    69   ar
   117    57    56    2
   118    93    94    1
   119   120   119    1
   120    94    97    1
   121    56    55    1
   122    67    69   ar
   123   119   121    1
   124   119   116    1
   125    97    98    1
   126    58    59    1
   127    58    55    1
   128    59    60    1
   129    55    54    1
   130   115   116    1
   131   116   117    1
   132    54    60    1
   133    98    99    1
   134   117   118    2
   135   100    99    1
