@<TRIPOS>MOLECULE
tmp/2h1hA00.pdb
 175 168 0 0 0
SMALL
GASTEIGER

@<TRIPOS>ATOM
      1  N         47.8340    2.0770   -1.8300 N.3    10  SER10      -0.1202
      2  CA        46.7430    2.2820   -0.9140 C.3    10  SER10       0.2020
      3  C         47.2240    1.8770    0.4690 C.2    10  SER10       0.2619
      4  O         47.5250    0.7070    0.7290 O.2    10  SER10      -0.2717
      5  CB        45.5200    1.4720   -1.3230 C.3    10  SER10       0.2103
      6  OG        44.4110    1.7740   -0.4860 O.3    10  SER10      -0.2182
      7  N         47.3260    2.8710    1.3400 N.am   11  MET11      -0.1965
      8  CA        47.7550    2.6510    2.7080 C.3    11  MET11       0.1736
      9  C         46.8930    1.5380    3.2870 C.2    11  MET11       0.2617
     10  O         47.3830    0.6350    3.9670 O.2    11  MET11      -0.2715
     11  CB        47.5670    3.9350    3.5110 C.3    11  MET11       0.0427
     12  CG        48.0530    3.8520    4.9370 C.3    11  MET11       0.0599
     13  SD        47.6030    5.3360    5.8180 S.3    11  MET11      -0.1393
     14  CE        48.8910    6.4870    5.2190 C.3    11  MET11       0.0692
     15  N         45.6000    1.6130    2.9930 N.am   12  GLY12      -0.1955
     16  CA        44.6730    0.6130    3.4690 C.3    12  GLY12       0.1869
     17  C         45.0020   -0.7850    2.9780 C.2    12  GLY12       0.2309
     18  O         45.0250   -1.7290    3.7660 O.2    12  GLY12      -0.2863
     19  N         40.8230   14.6450    7.7700 N.3   186  ALA186     -0.1231
     20  CA        41.3340   14.7920    6.4140 C.3   186  ALA186      0.1694
     21  C         41.2160   13.5730    5.5320 C.2   186  ALA186      0.2593
     22  O         41.5420   12.4570    5.9450 O.2   186  ALA186     -0.2718
     23  CB        42.7870   15.2460    6.4470 C.3   186  ALA186      0.0304
     24  N         40.7520   13.8020    4.3060 N.am  187  THR187     -0.1939
     25  CA        40.6270   12.7410    3.3180 C.3   187  THR187      0.2028
     26  C         40.7210   13.2850    1.8860 C.2   187  THR187      0.2642
     27  O         40.7800   14.4890    1.6750 O.2   187  THR187     -0.2714
     28  CB        39.3260   11.9120    3.5150 C.3   187  THR187      0.1808
     29  OG1       39.2040   10.9720    2.4410 O.3   187  THR187     -0.2208
     30  CG2       38.0900   12.8110    3.5830 C.3   187  THR187      0.0379
     31  N         40.7290   12.3760    0.9150 N.am  188  THR188     -0.1950
     32  CA        40.8750   12.6880   -0.5110 C.3   188  THR188      0.1897
     33  C         39.7790   13.4270   -1.2730 C.2   188  THR188      0.2313
     34  O         40.0680   14.1000   -2.2650 O.2   188  THR188     -0.2863
     35  CB        41.1080   11.4040   -1.3170 C.3   188  THR188      0.1794
     36  OG1       41.4760   11.7320   -2.6650 O.3   188  THR188     -0.2208
     37  CG2       39.8210   10.5550   -1.3350 C.3   188  THR188      0.0378
     38  N         33.4780   13.0570    1.0020 N.3   192  LYS192     -0.1245
     39  CA        33.8610   12.0720    2.0140 C.3   192  LYS192      0.1561
     40  C         34.1590   12.7540    3.3520 C.2   192  LYS192      0.2260
     41  O         34.2770   12.0950    4.3780 O.2   192  LYS192     -0.2867
     42  CB        35.1030   11.2950    1.5710 C.3   192  LYS192      0.0271
     43  CG        34.9060   10.3780    0.3720 C.3   192  LYS192      0.0035
     44  CD        36.2230    9.7080   -0.0340 C.3   192  LYS192      0.0206
     45  CE        36.7420    8.7490    1.0370 C.3   192  LYS192      0.1093
     46  NZ        38.0830    8.1680    0.6910 N.3   192  LYS192     -0.1314
     47  N         45.3030   15.4520   13.6320 N.3   216  PRO216     -0.2102
     48  CA        46.4130   15.2500   12.6870 C.3   216  PRO216      0.1504
     49  C         46.1420   16.0750   11.4250 C.2   216  PRO216      0.2576
     50  O         45.0780   16.6610   11.2830 O.2   216  PRO216     -0.2718
     51  CB        46.3570   13.7490   12.3900 C.3   216  PRO216      0.0282
     52  CG        45.6210   13.1670   13.5730 C.3   216  PRO216      0.0208
     53  CD        44.5550   14.2030   13.8420 C.3   216  PRO216      0.0893
     54  N         47.1030   16.1210   10.5190 N.am  217  TRP217     -0.1963
     55  CA        46.9510   16.8470    9.2650 C.3   217  TRP217      0.1771
     56  C         48.1810   16.5420    8.4230 C.2   217  TRP217      0.2620
     57  O         49.3000   16.5450    8.9370 O.2   217  TRP217     -0.2715
     58  CB        46.8250   18.3610    9.5000 C.3   217  TRP217      0.0590
     59  CG        47.9960   19.0080   10.1920 C.ar  217  TRP217      0.0006
     60  CD1       48.1760   19.1460   11.5400 C.ar  217  TRP217      0.0946
     61  CD2       49.1340   19.6220    9.5690 C.ar  217  TRP217      0.0152
     62  NE1       49.3500   19.8120   11.7960 N.ar  217  TRP217     -0.2442
     63  CE2       49.9600   20.1170   10.6070 C.ar  217  TRP217      0.0810
     64  CE3       49.5360   19.8050    8.2350 C.ar  217  TRP217      0.0012
     65  CZ2       51.1700   20.7870   10.3560 C.ar  217  TRP217      0.0191
     66  CZ3       50.7440   20.4740    7.9830 C.ar  217  TRP217      0.0001
     67  CH2       51.5440   20.9560    9.0470 C.ar  217  TRP217      0.0015
     68  N         47.9800   16.2620    7.1390 N.am  218  GLY218     -0.1940
     69  CA        49.1100   15.9320    6.2900 C.3   218  GLY218      0.2014
     70  C         49.4650   16.9770    5.2530 C.2   218  GLY218      0.2638
     71  O         50.5800   16.9860    4.7270 O.2   218  GLY218     -0.2714
     72  N         48.5180   17.8530    4.9440 N.am  219  ALA219     -0.1977
     73  CA        48.7540   18.8930    3.9630 C.3   219  ALA219      0.1597
     74  C         48.3820   20.2480    4.5400 C.2   219  ALA219      0.2287
     75  O         47.5480   20.3410    5.4350 O.2   219  ALA219     -0.2864
     76  CB        47.9460   18.6140    2.7090 C.3   219  ALA219      0.0319
     77  N         44.9120   21.0090    5.1670 N.3   222  GLU222     -0.1245
     78  CA        44.3570   20.1570    6.2070 C.3   222  GLU222      0.1567
     79  C         44.7170   20.7320    7.5730 C.2   222  GLU222      0.2260
     80  O         43.9550   20.5900    8.5330 O.2   222  GLU222     -0.2867
     81  CB        44.8870   18.7330    6.0690 C.3   222  GLU222      0.0388
     82  CG        44.6990   18.1880    4.6770 C.3   222  GLU222      0.1160
     83  CD        45.0510   16.7340    4.5580 C.2   222  GLU222      0.3649
     84  OE1       46.1220   16.3210    5.0470 O.co2 222  GLU222     -0.2457
     85  OE2       44.2470   16.0010    3.9520 O.co2 222  GLU222     -0.2457
     86  N         53.3190   18.7290   12.2720 N.3   241  LYS241     -0.1231
     87  CA        53.3320   17.7880   11.1630 C.3   241  LYS241      0.1693
     88  C         54.2670   16.6460   11.5130 C.2   241  LYS241      0.2592
     89  O         55.3740   16.8730   11.9960 O.2   241  LYS241     -0.2718
     90  CB        53.7970   18.4350    9.8630 C.3   241  LYS241      0.0285
     91  CG        53.5010   17.5350    8.6710 C.3   241  LYS241      0.0035
     92  CD        53.9920   18.0930    7.3500 C.3   241  LYS241      0.0206
     93  CE        53.3940   17.2780    6.2170 C.3   241  LYS241      0.1093
     94  NZ        53.3320   15.8310    6.5930 N.3   241  LYS241     -0.1314
     95  N         53.8200   15.4180   11.2800 N.am  242  MET242     -0.1965
     96  CA        54.6560   14.2660   11.5760 C.3   242  MET242      0.1736
     97  C         54.6110   13.1910   10.5050 C.2   242  MET242      0.2617
     98  O         53.8330   13.2630    9.5580 O.2   242  MET242     -0.2715
     99  CB        54.2880   13.6670   12.9460 C.3   242  MET242      0.0427
    100  CG        52.8050   13.5980   13.2460 C.3   242  MET242      0.0599
    101  SD        52.4750   13.1760   14.9930 S.3   242  MET242     -0.1393
    102  CE        53.1380   14.5990   15.8140 C.3   242  MET242      0.0692
    103  N         55.4820   12.2020   10.6530 N.am  243  SER243     -0.1936
    104  CA        55.5460   11.1000    9.7120 C.3   243  SER243      0.2055
    105  C         54.4140   10.1310    9.9990 C.2   243  SER243      0.2642
    106  O         53.6570   10.2890   10.9630 O.2   243  SER243     -0.2714
    107  CB        56.8760   10.3620    9.8500 C.3   243  SER243      0.2130
    108  OG        57.0330    9.8470   11.1650 O.3   243  SER243     -0.2179
    109  N         54.3170    9.1180    9.1500 N.am  244  LEU244     -0.1977
    110  CA        53.3070    8.0880    9.2880 C.3   244  LEU244      0.1596
    111  C         53.5360    7.3910   10.6210 C.2   244  LEU244      0.2287
    112  O         52.6000    7.1020   11.3620 O.2   244  LEU244     -0.2864
    113  CB        53.4640    7.0950    8.1500 C.3   244  LEU244      0.0297
    114  CG        52.3240    6.1240    7.9340 C.3   244  LEU244      0.0022
    115  CD1       51.0390    6.9090    7.7640 C.3   244  LEU244      0.0001
    116  CD2       52.6290    5.2700    6.7150 C.3   244  LEU244      0.0001
    117  N         52.3940    9.8190   13.4640 N.3   247  VAL247     -0.1245
    118  CA        50.9570    9.8910   13.6500 C.3   247  VAL247      0.1561
    119  C         50.4570    8.5310   14.1420 C.2   247  VAL247      0.2260
    120  O         49.4370    8.4450   14.8270 O.2   247  VAL247     -0.2867
    121  CB        50.2200   10.3100   12.3510 C.3   247  VAL247      0.0252
    122  CG1       50.2790    9.2000   11.3080 C.3   247  VAL247      0.0019
    123  CG2       48.7830   10.6610   12.6830 C.3   247  VAL247      0.0019
    124  N         36.3650    8.0040    6.0620 N.3   261  ASP261     -0.1225
    125  CA        36.9270    6.9000    5.3050 C.3   261  ASP261      0.1805
    126  C         38.2490    7.3580    4.6910 C.2   261  ASP261      0.2598
    127  O         38.2830    7.9680    3.6180 O.2   261  ASP261     -0.2718
    128  CB        35.9100    6.4600    4.2350 C.3   261  ASP261      0.1424
    129  CG        36.3900    5.2880    3.4010 C.2   261  ASP261      0.3668
    130  OD1       37.1750    4.4570    3.9030 O.co2 261  ASP261     -0.2456
    131  OD2       35.9590    5.1900    2.2340 O.co2 261  ASP261     -0.2456
    132  N         39.3390    7.0700    5.3980 N.am  262  THR262     -0.1939
    133  CA        40.6710    7.4560    4.9600 C.3   262  THR262      0.2028
    134  C         41.7000    6.4410    5.4760 C.2   262  THR262      0.2643
    135  O         41.4230    5.6620    6.3870 O.2   262  THR262     -0.2714
    136  CB        41.0200    8.8930    5.4640 C.3   262  THR262      0.1808
    137  OG1       42.2860    9.2990    4.9360 O.3   262  THR262     -0.2208
    138  CG2       41.0970    8.9320    6.9770 C.3   262  THR262      0.0379
    139  N         42.8880    6.4560    4.8870 N.am  263  GLY263     -0.1939
    140  CA        43.9200    5.5210    5.2780 C.3   263  GLY263      0.2014
    141  C         44.2530    5.4760    6.7490 C.2   263  GLY263      0.2638
    142  O         44.4210    4.3980    7.3130 O.2   263  GLY263     -0.2714
    143  N         44.3740    6.6390    7.3760 N.am  264  LEU264     -0.1977
    144  CA        44.7110    6.6800    8.7870 C.3   264  LEU264      0.1596
    145  C         43.6470    5.9560    9.6080 C.2   264  LEU264      0.2287
    146  O         43.9130    5.4610   10.7040 O.2   264  LEU264     -0.2864
    147  CB        44.9090    8.1280    9.2350 C.3   264  LEU264      0.0297
    148  CG        46.1840    8.7530    8.6430 C.3   264  LEU264      0.0022
    149  CD1       46.4550   10.1250    9.2610 C.3   264  LEU264      0.0001
    150  CD2       47.3690    7.8350    8.9090 C.3   264  LEU264      0.0001
    151  N         42.3060    3.2250    8.5800 N.3   266  HIS266     -0.1241
    152  CA        42.7510    1.8410    8.4300 C.3   266  HIS266      0.1621
    153  C         43.9670    1.5890    9.2990 C.2   266  HIS266      0.2264
    154  O         44.1570    0.4890    9.7900 O.2   266  HIS266     -0.2867
    155  CB        43.0770    1.5190    6.9660 C.3   266  HIS266      0.0745
    156  CG        41.8720    1.4470    6.0770 C.ar  266  HIS266      0.0817
    157  ND1       40.9310    0.4430    6.1720 N.ar  266  HIS266     -0.2268
    158  CD2       41.4490    2.2640    5.0840 C.ar  266  HIS266      0.1154
    159  CE1       39.9810    0.6450    5.2740 C.ar  266  HIS266      0.1986
    160  NE2       40.2720    1.7430    4.6010 N.ar  266  HIS266     -0.2212
    161  N         30.9250    6.6500    0.1580 N.3   282  THR282     -0.1218
    162  CA        31.5770    5.3470    0.0580 C.3   282  THR282      0.1862
    163  C         30.8950    4.3140    0.9410 C.2   282  THR282      0.2287
    164  O         30.4050    4.6260    2.0250 O.2   282  THR282     -0.2866
    165  CB        33.0810    5.4140    0.4240 C.3   282  THR282      0.1770
    166  OG1       33.2440    5.9730    1.7350 O.3   282  THR282     -0.2211
    167  CG2       33.8340    6.2550   -0.5970 C.3   282  THR282      0.0375
    168  N         34.5700   -1.3860    1.3800 N.3   287  ILE287     -0.1245
    169  CA        35.8840   -0.8840    1.7690 C.3   287  ILE287      0.1561
    170  C         36.0640   -0.6730    3.2710 C.2   287  ILE287      0.2260
    171  O         37.0200   -0.0290    3.7010 O.2   287  ILE287     -0.2867
    172  CB        36.1420    0.4590    1.0680 C.3   287  ILE287      0.0252
    173  CG1       35.0350    1.4490    1.4600 C.3   287  ILE287      0.0019
    174  CG2       36.1760    0.2650   -0.4480 C.3   287  ILE287      0.0019
    175  CD1       35.1420    2.8020    0.8200 C.3   287  ILE287      0.0001
@<TRIPOS>BOND
     1    36    35    1
     2    34    33    2
     3     1     2    1
     4    37    35    1
     5     5     2    1
     6     5     6    1
     7    35    32    1
     8    33    32    1
     9     2     3    1
    10   167   165    1
    11    32    31    1
    12   174   172    1
    13    44    43    1
    14    44    45    1
    15   162   161    1
    16   162   165    1
    17   162   163    1
    18    43    42    1
    19   165   166    1
    20     3     4    2
    21     3     7   am
    22    46    45    1
    23   175   173    1
    24    31    26   am
    25   163   164    2
    26    38    39    1
    27   172   173    1
    28   172   169    1
    29     7     8    1
    30   168   169    1
    31    42    39    1
    32    27    26    2
    33   169   170    1
    34    26    25    1
    35    39    40    1
    36   131   129   ar
    37    29    28    1
    38     8     9    1
    39     8    11    1
    40    76    73    1
    41    17    16    1
    42    17    18    2
    43    15     9   am
    44    15    16    1
    45   170   171    2
    46     9    10    2
    47    25    28    1
    48    25    24    1
    49    40    41    2
    50   129   130   ar
    51   129   128    1
    52    11    12    1
    53    28    30    1
    54   127   126    2
    55    85    83   ar
    56    73    74    1
    57    73    72    1
    58   128   125    1
    59    24    21   am
    60    74    75    2
    61    83    82    1
    62    83    84   ar
    63   160   158   ar
    64   160   159   ar
    65    82    81    1
    66   126   125    1
    67   126   132   am
    68    71    70    2
    69   139   140    1
    70   139   134   am
    71   137   136    1
    72    12    13    1
    73    72    70   am
    74   133   132    1
    75   133   136    1
    76   133   134    1
    77   158   156   ar
    78    77    78    1
    79    14    13    1
    80    70    69    1
    81   159   157   ar
    82   140   141    1
    83   125   124    1
    84   136   138    1
    85   134   135    2
    86    21    22    2
    87    21    20    1
    88    81    78    1
    89   156   157   ar
    90   156   155    1
    91    78    79    1
    92    93    94    1
    93    93    92    1
    94    69    68    1
    95    20    23    1
    96    20    19    1
    97   116   114    1
    98   141   142    2
    99   141   143   am
   100   155   152    1
   101    68    56   am
   102    92    91    1
   103   143   144    1
   104    79    80    2
   105   115   114    1
   106   114   113    1
   107    66    64   ar
   108    66    67   ar
   109   113   110    1
   110    64    61   ar
   111    56    57    2
   112    56    55    1
   113   152   151    1
   114   152   153    1
   115   148   150    1
   116   148   147    1
   117   148   149    1
   118    91    90    1
   119   144   147    1
   120   144   145    1
   121    67    65   ar
   122   109   110    1
   123   109   105   am
   124    55    58    1
   125    55    54    1
   126   110   111    1
   127   153   154    2
   128    58    59    1
   129    98    97    2
   130    61    59   ar
   131    61    63   ar
   132   145   146    2
   133   104   107    1
   134   104   105    1
   135   104   103    1
   136   107   108    1
   137    90    87    1
   138   105   106    2
   139    59    60   ar
   140    65    63   ar
   141    97   103   am
   142    97    96    1
   143    54    49   am
   144    63    62   ar
   145   111   112    2
   146    87    88    1
   147    87    86    1
   148    95    88   am
   149    95    96    1
   150    50    49    2
   151   122   121    1
   152    49    48    1
   153    88    89    2
   154    60    62   ar
   155    96    99    1
   156   121   123    1
   157   121   118    1
   158    51    48    1
   159    51    52    1
   160    48    47    1
   161    99   100    1
   162   100   101    1
   163   117   118    1
   164    52    53    1
   165    47    53    1
   166   118   119    1
   167   119   120    2
   168   101   102    1
