@<TRIPOS>MOLECULE
tmp/2h1pB00.pdb
 104 98 0 0 0
SMALL
GASTEIGER

@<TRIPOS>ATOM
      1  N         23.2160  -19.4920   19.5390 N.3    31  SER31      -0.1217
      2  CA        22.4910  -19.5260   20.7840 C.3    31  SER31       0.1889
      3  C         20.9850  -19.6210   20.6560 C.2    31  SER31       0.2288
      4  O         20.3850  -20.4670   21.2770 O.2    31  SER31      -0.2866
      5  CB        22.9200  -18.3980   21.7180 C.3    31  SER31       0.2089
      6  OG        24.2780  -18.5600   22.1210 O.3    31  SER31      -0.2183
      7  N         16.8390  -19.8090   19.1120 N.3    33  PHE33      -0.1241
      8  CA        15.9260  -20.6020   18.3010 C.3    33  PHE33       0.1605
      9  C         15.4600  -19.5770   17.2950 C.2    33  PHE33       0.2264
     10  O         15.3230  -18.3940   17.6400 O.2    33  PHE33      -0.2867
     11  CB        14.6670  -20.9540   19.0990 C.3    33  PHE33       0.0534
     12  CG        14.8220  -22.1170   20.0130 C.ar   33  PHE33      -0.0203
     13  CD1       16.0370  -22.3800   20.6240 C.ar   33  PHE33      -0.0042
     14  CD2       13.7990  -23.0430   20.1400 C.ar   33  PHE33      -0.0042
     15  CE1       16.1780  -23.4710   21.4750 C.ar   33  PHE33      -0.0003
     16  CE2       13.9280  -24.1300   21.0120 C.ar   33  PHE33      -0.0003
     17  CZ        15.1200  -24.3480   21.6500 C.ar   33  PHE33      -0.0000
     18  N          9.8910  -23.9100   13.1820 N.3    50  THR50      -0.1203
     19  CA        10.7300  -23.4730   14.2880 C.3    50  THR50       0.1994
     20  C         11.8540  -24.4770   14.4590 C.2    50  THR50       0.2618
     21  O         11.6640  -25.6740   14.2590 O.2    50  THR50      -0.2717
     22  CB         9.9200  -23.4090   15.6160 C.3    50  THR50       0.1784
     23  OG1        8.7800  -22.5400   15.4650 O.3    50  THR50      -0.2211
     24  CG2       10.7720  -22.8560   16.7350 C.3    50  THR50       0.0376
     25  N         13.0120  -23.9900   14.8670 N.am   51  ILE51      -0.1965
     26  CA        14.1690  -24.8560   15.0130 C.3    51  ILE51       0.1727
     27  C         15.0030  -24.4120   16.2180 C.2    51  ILE51       0.2616
     28  O         15.0290  -23.2230   16.5850 O.2    51  ILE51      -0.2715
     29  CB        15.0520  -24.8100   13.7390 C.3    51  ILE51       0.0290
     30  CG1       16.0660  -25.9310   13.7320 C.3    51  ILE51       0.0022
     31  CG2       15.7770  -23.4770   13.6270 C.3    51  ILE51       0.0023
     32  CD1       16.9000  -25.9440   12.4680 C.3    51  ILE51       0.0001
     33  N         15.6420  -25.3930   16.8490 N.am   52  ASN52      -0.1958
     34  CA        16.4880  -25.1500   18.0010 C.3    52  ASN52       0.1819
     35  C         17.8020  -24.5220   17.5940 C.2    52  ASN52       0.2622
     36  O         17.8800  -23.8860   16.5450 O.2    52  ASN52      -0.2715
     37  CB        16.6700  -26.4360   18.8290 C.3    52  ASN52       0.1195
     38  CG        17.2940  -27.5990   18.0380 C.2    52  ASN52       0.2630
     39  OD1       17.9050  -27.4280   16.9710 O.2    52  ASN52      -0.2716
     40  ND2       17.1760  -28.7970   18.6050 N.am   52  ASN52      -0.0877
     41  N         18.7830  -24.5820   18.4840 N.am   53  SER53      -0.1950
     42  CA        20.1110  -24.0760   18.1990 C.3    53  SER53       0.1924
     43  C         20.8780  -25.2740   17.7040 C.2    53  SER53       0.2314
     44  O         20.5720  -26.4010   18.1020 O.2    53  SER53      -0.2863
     45  CB        20.7140  -23.5930   19.4840 C.3    53  SER53       0.2116
     46  OG        19.6980  -22.9240   20.1910 O.3    53  SER53      -0.2180
     47  N         16.5490  -30.1860   16.0130 N.3    57  LYS57      -0.1231
     48  CA        15.1580  -30.3960   16.3620 C.3    57  LYS57       0.1693
     49  C         14.2950  -29.3790   15.6430 C.2    57  LYS57       0.2593
     50  O         14.6030  -28.1860   15.6330 O.2    57  LYS57      -0.2718
     51  CB        14.9770  -30.2880   17.8740 C.3    57  LYS57       0.0285
     52  CG        15.4500  -31.5200   18.6690 C.3    57  LYS57       0.0035
     53  CD        14.9750  -31.4560   20.1270 C.3    57  LYS57       0.0206
     54  CE        14.6420  -32.8520   20.6580 C.3    57  LYS57       0.1093
     55  NZ        13.4070  -33.4700   19.9810 N.3    57  LYS57      -0.1314
     56  N         13.2050  -29.8370   15.0500 N.am   58  THR58      -0.1939
     57  CA        12.4210  -28.9340   14.2560 C.3    58  THR58       0.2028
     58  C         10.9830  -29.2050   14.4640 C.2    58  THR58       0.2642
     59  O         10.6340  -30.2780   14.8990 O.2    58  THR58      -0.2714
     60  CB        12.7280  -29.1430   12.7750 C.3    58  THR58       0.1808
     61  OG1       12.9640  -30.5280   12.5560 O.3    58  THR58      -0.2208
     62  CG2       13.9570  -28.4030   12.3600 C.3    58  THR58       0.0379
     63  N         10.1500  -28.2180   14.1620 N.am   59  TYR59      -0.1973
     64  CA         8.7120  -28.3800   14.2570 C.3    59  TYR59       0.1639
     65  C          8.0590  -27.7320   13.0490 C.2    59  TYR59       0.2290
     66  O          8.4860  -26.6900   12.5890 O.2    59  TYR59      -0.2864
     67  CB         8.1310  -27.7920   15.5520 C.3    59  TYR59       0.0560
     68  CG         6.6030  -27.7490   15.5700 C.ar   59  TYR59      -0.0198
     69  CD1        5.8520  -28.8780   15.8190 C.ar   59  TYR59      -0.0009
     70  CD2        5.9190  -26.5720   15.3190 C.ar   59  TYR59      -0.0009
     71  CE1        4.4500  -28.8250   15.8100 C.ar   59  TYR59       0.0417
     72  CE2        4.5310  -26.5040   15.3430 C.ar   59  TYR59       0.0417
     73  CZ         3.8080  -27.6310   15.5600 C.ar   59  TYR59       0.1957
     74  OH         2.4410  -27.5450   15.5590 O.3    59  TYR59      -0.2866
     75  N         13.6180  -16.2130   18.8710 N.3    99  ARG99      -0.1245
     76  CA        12.9350  -16.4440   20.1540 C.3    99  ARG99       0.1563
     77  C         13.7300  -15.8390   21.3490 C.2    99  ARG99       0.2260
     78  O         14.9670  -15.8960   21.3760 O.2    99  ARG99      -0.2867
     79  CB        12.6550  -17.9360   20.3660 C.3    99  ARG99       0.0307
     80  CG        11.5020  -18.2180   21.2970 C.3    99  ARG99       0.0489
     81  CD        11.7500  -19.4960   22.0520 C.3    99  ARG99       0.2205
     82  NE        12.9300  -19.3540   22.8920 N.pl3  99  ARG99      -0.0865
     83  CZ        13.4830  -20.3310   23.6070 C.cat  99  ARG99       0.5346
     84  NH1       12.9720  -21.5520   23.5760 N.pl3  99  ARG99       0.1354
     85  NH2       14.6000  -20.0980   24.2870 N.pl3  99  ARG99       0.1354
     86  N         15.5600  -15.6540   24.6740 N.3   101  SER101     -0.1217
     87  CA        16.3430  -16.6900   25.3180 C.3   101  SER101      0.1889
     88  C         15.8670  -17.0760   26.7080 C.2   101  SER101      0.2288
     89  O         16.3300  -18.0630   27.2550 O.2   101  SER101     -0.2866
     90  CB        17.7470  -16.1690   25.4650 C.3   101  SER101      0.2089
     91  OG        17.6870  -14.9530   26.2040 O.3   101  SER101     -0.2183
     92  N         13.4220  -18.1790   27.3250 N.3   103  ALA103     -0.1245
     93  CA        12.4230  -19.2020   27.0490 C.3   103  ALA103      0.1562
     94  C         10.9850  -18.7740   27.3170 C.2   103  ALA103      0.2260
     95  O         10.1050  -19.6180   27.4510 O.2   103  ALA103     -0.2867
     96  CB        12.7310  -20.4300   27.7910 C.3   103  ALA103      0.0290
     97  N          9.0320  -17.8680   25.4160 N.3   105  LEU105     -0.1245
     98  CA         8.3360  -18.2160   24.1800 C.3   105  LEU105      0.1561
     99  C          7.6960  -17.1070   23.3450 C.2   105  LEU105      0.2260
    100  O          6.5230  -17.2210   22.9750 O.2   105  LEU105     -0.2867
    101  CB         7.3290  -19.3400   24.3990 C.3   105  LEU105      0.0270
    102  CG         7.7890  -20.5310   25.2400 C.3   105  LEU105      0.0019
    103  CD1        6.6110  -21.5190   25.3950 C.3   105  LEU105      0.0001
    104  CD2        9.1050  -21.1890   24.7270 C.3   105  LEU105      0.0001
@<TRIPOS>BOND
     1    62    60    1
     2    32    30    1
     3    61    60    1
     4    66    65    2
     5    60    57    1
     6    65    64    1
     7    18    19    1
     8    31    29    1
     9    30    29    1
    10    29    26    1
    11    63    64    1
    12    63    58   am
    13    57    58    1
    14    57    56    1
    15    64    67    1
    16    21    20    2
    17    19    20    1
    18    19    22    1
    19    20    25   am
    20    58    59    2
    21    25    26    1
    22    26    27    1
    23    56    49   am
    24    70    72   ar
    25    70    68   ar
    26    72    73   ar
    27    23    22    1
    28    67    68    1
    29    74    73    1
    30    73    71   ar
    31    68    69   ar
    32    22    24    1
    33    50    49    2
    34    49    48    1
    35    71    69   ar
    36    47    48    1
    37    27    28    2
    38    27    33   am
    39    48    51    1
    40    36    35    2
    41    33    34    1
    42    39    38    2
    43     9    10    2
    44     9     8    1
    45    35    34    1
    46    35    41   am
    47    43    44    2
    48    43    42    1
    49    51    52    1
    50    34    37    1
    51    38    40   am
    52    38    37    1
    53    42    41    1
    54    42    45    1
    55     8    11    1
    56     8     7    1
    57    52    53    1
    58    75    76    1
    59    11    12    1
    60    45    46    1
    61     1     2    1
    62    55    54    1
    63    12    14   ar
    64    12    13   ar
    65    53    54    1
    66    14    16   ar
    67    76    79    1
    68    76    77    1
    69    79    80    1
    70    13    15   ar
    71     3     2    1
    72     3     4    2
    73     2     5    1
    74    16    17   ar
    75    80    81    1
    76    77    78    2
    77    15    17   ar
    78     5     6    1
    79    81    82    1
    80    82    83    2
    81   100    99    2
    82    99    98    1
    83    84    83    1
    84    83    85    1
    85    98   101    1
    86    98    97    1
    87   101   102    1
    88    86    87    1
    89   104   102    1
    90   102   103    1
    91    87    90    1
    92    87    88    1
    93    90    91    1
    94    88    89    2
    95    93    94    1
    96    93    92    1
    97    93    96    1
    98    94    95    2
