@<TRIPOS>MOLECULE
tmp/2h1pA00.pdb
 96 96 0 0 0
SMALL
GASTEIGER

@<TRIPOS>ATOM
      1  N         -9.2530  -23.2220   23.8460 N.3    27  GLN27      -0.1245
      2  CA        -8.8130  -23.9820   25.0330 C.3    27  GLN27       0.1566
      3  C         -8.2060  -22.9660   26.0350 C.2    27  GLN27       0.2260
      4  O         -7.9610  -21.8060   25.6780 O.2    27  GLN27      -0.2867
      5  CB        -7.7170  -25.0080   24.6690 C.3    27  GLN27       0.0367
      6  CG        -8.1010  -26.1790   23.7410 C.3    27  GLN27       0.0905
      7  CD        -6.8750  -27.0930   23.4160 C.2    27  GLN27       0.2608
      8  OE1       -5.8200  -26.9750   24.0700 O.2    27  GLN27      -0.2717
      9  NE2       -6.9560  -27.8500   22.2980 N.am   27  GLN27      -0.0878
     10  N         -3.2570  -21.8980   30.3840 N.3    30  VAL30      -0.1231
     11  CA        -2.3020  -22.2000   31.4280 C.3    30  VAL30       0.1692
     12  C         -1.5070  -23.4200   31.0040 C.2    30  VAL30       0.2592
     13  O         -2.0450  -24.4850   30.7150 O.2    30  VAL30      -0.2718
     14  CB        -2.9390  -22.3850   32.8180 C.3    30  VAL30       0.0266
     15  CG1       -1.8670  -22.2540   33.9180 C.3    30  VAL30       0.0020
     16  CG2       -4.0540  -21.3740   33.0260 C.3    30  VAL30       0.0020
     17  N         -0.2130  -23.2440   30.9100 N.am   31  HIS31      -0.1962
     18  CA         0.6080  -24.3510   30.5300 C.3    31  HIS31       0.1787
     19  C          0.9280  -25.2430   31.7030 C.2    31  HIS31       0.2621
     20  O          1.1490  -24.7810   32.8130 O.2    31  HIS31      -0.2715
     21  CB         1.8890  -23.8490   29.9270 C.3    31  HIS31       0.0785
     22  CG         2.8010  -24.9440   29.4980 C.ar   31  HIS31       0.0821
     23  ND1        2.9520  -25.3070   28.1800 N.ar   31  HIS31      -0.2267
     24  CD2        3.5050  -25.8420   30.2180 C.ar   31  HIS31       0.1154
     25  CE1        3.8430  -26.2750   28.0980 C.ar   31  HIS31       0.1986
     26  NE2        4.1910  -26.6220   29.3220 N.ar   31  HIS31      -0.2212
     27  N          1.0950  -26.5190   31.4030 N.am   32  SER32      -0.1936
     28  CA         1.4870  -27.5100   32.4000 C.3    32  SER32       0.2055
     29  C          2.8440  -27.1200   33.0000 C.2    32  SER32       0.2643
     30  O          3.8840  -27.7850   32.7860 O.2    32  SER32      -0.2714
     31  CB         1.5290  -28.9310   31.8140 C.3    32  SER32       0.2130
     32  OG         2.6820  -29.1540   31.0010 O.3    32  SER32      -0.2179
     33  N          2.8570  -25.9510   33.6100 N.am   33  ASN33      -0.1971
     34  CA         4.0460  -25.4830   34.2590 C.3    33  ASN33       0.1688
     35  C          3.7290  -24.1290   34.8500 C.2    33  ASN33       0.2292
     36  O          4.6140  -23.3830   35.2500 O.2    33  ASN33      -0.2864
     37  CB         5.2330  -25.4660   33.2970 C.3    33  ASN33       0.1181
     38  CG         5.1910  -24.3140   32.3360 C.2    33  ASN33       0.2629
     39  OD1        6.0460  -24.2220   31.4640 O.2    33  ASN33      -0.2716
     40  ND2        4.3350  -23.3240   32.6140 N.am   33  ASN33      -0.0877
     41  N          1.3080  -18.5110   28.4420 N.3    37  TYR37      -0.1241
     42  CA         1.9790  -17.9470   27.3020 C.3    37  TYR37       0.1605
     43  C          1.1810  -17.1440   26.2950 C.2    37  TYR37       0.2264
     44  O          1.0270  -17.5690   25.1550 O.2    37  TYR37      -0.2867
     45  CB         2.7850  -19.0320   26.6550 C.3    37  TYR37       0.0534
     46  CG         3.7860  -19.6200   27.6100 C.ar   37  TYR37      -0.0201
     47  CD1        5.0090  -19.0070   27.8010 C.ar   37  TYR37      -0.0009
     48  CD2        3.5050  -20.7560   28.3430 C.ar   37  TYR37      -0.0009
     49  CE1        5.9600  -19.5380   28.6070 C.ar   37  TYR37       0.0417
     50  CE2        4.4740  -21.3050   29.1780 C.ar   37  TYR37       0.0417
     51  CZ         5.7120  -20.6860   29.2930 C.ar   37  TYR37       0.1957
     52  OH         6.7470  -21.2250   30.0450 O.3    37  TYR37      -0.2866
     53  N          1.4670  -19.4530   23.1550 N.3    96  SER96      -0.1202
     54  CA         2.5230  -20.3890   22.8690 C.3    96  SER96       0.2020
     55  C          2.3790  -21.5890   23.7530 C.2    96  SER96       0.2619
     56  O          3.2040  -22.4930   23.7210 O.2    96  SER96      -0.2717
     57  CB         3.8750  -19.7530   23.1130 C.3    96  SER96       0.2103
     58  OG         3.9290  -18.4990   22.4860 O.3    96  SER96      -0.2182
     59  N          1.3580  -21.5800   24.5830 N.am   97  THR97      -0.1938
     60  CA         1.1350  -22.6900   25.4740 C.3    97  THR97       0.2028
     61  C          0.9260  -23.9450   24.6300 C.2    97  THR97       0.2642
     62  O          1.5490  -24.9860   24.8490 O.2    97  THR97      -0.2714
     63  CB        -0.1040  -22.3900   26.2630 C.3    97  THR97       0.1808
     64  OG1        0.1230  -21.1700   26.9810 O.3    97  THR97      -0.2208
     65  CG2       -0.4680  -23.5460   27.2090 C.3    97  THR97       0.0379
     66  N          0.0650  -23.8210   23.6310 N.am   98  HIS98      -0.1959
     67  CA        -0.1790  -24.9140   22.7060 C.3    98  HIS98       0.1787
     68  C          0.5350  -24.7110   21.3800 C.2    98  HIS98       0.2620
     69  O          0.6190  -23.5940   20.8780 O.2    98  HIS98      -0.2715
     70  CB        -1.6830  -25.1700   22.5080 C.3    98  HIS98       0.0785
     71  CG        -2.4030  -25.4730   23.7880 C.ar   98  HIS98       0.0821
     72  ND1       -3.3240  -24.6060   24.3490 N.ar   98  HIS98      -0.2267
     73  CD2       -2.2410  -26.4790   24.6800 C.ar   98  HIS98       0.1154
     74  CE1       -3.7620  -25.1120   25.4870 C.ar   98  HIS98       0.1986
     75  NE2       -3.1290  -26.2520   25.7070 N.ar   98  HIS98      -0.2212
     76  N          1.1440  -25.7950   20.9170 N.am   99  VAL99      -0.1977
     77  CA         1.8810  -25.8670   19.6700 C.3    99  VAL99       0.1596
     78  C          0.8950  -26.4830   18.6810 C.2    99  VAL99       0.2287
     79  O          0.2920  -27.5050   18.9830 O.2    99  VAL99      -0.2864
     80  CB         2.9520  -26.9220   19.8290 C.3    99  VAL99       0.0276
     81  CG1        2.4260  -28.2460   19.3620 C.3    99  VAL99       0.0022
     82  CG2        4.2160  -26.5300   19.1540 C.3    99  VAL99       0.0022
     83  N          1.8270  -22.5110   17.7680 N.3   101  TRP101     -0.1241
     84  CA         1.4240  -21.2090   18.2340 C.3   101  TRP101      0.1605
     85  C          0.4820  -20.4850   17.2570 C.2   101  TRP101      0.2264
     86  O          0.6620  -20.5220   16.0610 O.2   101  TRP101     -0.2867
     87  CB         2.6460  -20.3660   18.5620 C.3   101  TRP101      0.0550
     88  CG         3.5810  -21.0800   19.4450 C.ar  101  TRP101      0.0003
     89  CD1        3.3380  -22.2680   20.0690 C.ar  101  TRP101      0.0946
     90  CD2        4.9940  -20.8520   19.5580 C.ar  101  TRP101      0.0152
     91  NE1        4.4670  -22.6910   20.7240 N.ar  101  TRP101     -0.2442
     92  CE2        5.4930  -21.8300   20.4430 C.ar  101  TRP101      0.0810
     93  CE3        5.8400  -19.8180   19.1670 C.ar  101  TRP101      0.0012
     94  CZ2        6.8320  -21.8800   20.8140 C.ar  101  TRP101      0.0191
     95  CZ3        7.1640  -19.8420   19.5840 C.ar  101  TRP101      0.0001
     96  CH2        7.6580  -20.9130   20.3380 C.ar  101  TRP101      0.0015
@<TRIPOS>BOND
     1    86    85    2
     2    85    84    1
     3    83    84    1
     4    84    87    1
     5    87    88    1
     6    78    79    2
     7    78    77    1
     8    82    80    1
     9    93    90   ar
    10    93    95   ar
    11    81    80    1
    12    88    90   ar
    13    88    89   ar
    14    90    92   ar
    15    95    96   ar
    16    77    80    1
    17    77    76    1
    18    89    91   ar
    19    96    94   ar
    20    92    91   ar
    21    92    94   ar
    22    69    68    2
    23    76    68   am
    24    68    67    1
    25     9     7   am
    26    58    57    1
    27    70    67    1
    28    70    71    1
    29    67    66    1
    30    54    57    1
    31    54    53    1
    32    54    55    1
    33     7     6    1
    34     7     8    2
    35    66    61   am
    36    56    55    2
    37     6     5    1
    38    55    59   am
    39    71    72   ar
    40    71    73   ar
    41     1     2    1
    42    72    74   ar
    43    59    60    1
    44    61    62    2
    45    61    60    1
    46     5     2    1
    47    73    75   ar
    48     2     3    1
    49    44    43    2
    50    60    63    1
    51    74    75   ar
    52     4     3    2
    53    63    64    1
    54    63    65    1
    55    43    42    1
    56    45    42    1
    57    45    46    1
    58    42    41    1
    59    46    47   ar
    60    46    48   ar
    61    47    49   ar
    62    25    23   ar
    63    25    26   ar
    64    23    22   ar
    65    48    50   ar
    66    49    51   ar
    67    50    51   ar
    68    51    52    1
    69    26    24   ar
    70    22    21    1
    71    22    24   ar
    72    21    18    1
    73    10    11    1
    74    18    17    1
    75    18    19    1
    76    13    12    2
    77    17    12   am
    78    32    31    1
    79    12    11    1
    80    27    19   am
    81    27    28    1
    82    11    14    1
    83    39    38    2
    84    19    20    2
    85    31    28    1
    86    38    40   am
    87    38    37    1
    88    28    29    1
    89    30    29    2
    90    14    16    1
    91    14    15    1
    92    29    33   am
    93    37    34    1
    94    33    34    1
    95    34    35    1
    96    35    36    2
