@<TRIPOS>MOLECULE
tmp/2h1tA00.pdb
 120 114 0 0 0
SMALL
GASTEIGER

@<TRIPOS>ATOM
      1  N         53.8340   17.0150   15.9340 N.3   102  ASP102     -0.1239
      2  CA        52.6110   16.3220   15.5350 C.3   102  ASP102      0.1674
      3  C         52.1260   17.0180   14.2590 C.2   102  ASP102      0.2266
      4  O         51.7900   18.2100   14.2610 O.2   102  ASP102     -0.2867
      5  CB        51.5770   16.4020   16.6580 C.3   102  ASP102      0.1410
      6  CG        50.2430   15.7440   16.3070 C.2   102  ASP102      0.3668
      7  OD1       50.0360   15.2780   15.1420 O.co2 102  ASP102     -0.2456
      8  OD2       49.3650   15.7060   17.2170 O.co2 102  ASP102     -0.2456
      9  N         49.4090   17.0900   11.2210 N.3   104  TRP104     -0.1241
     10  CA        48.0880   16.6690   10.6780 C.3   104  TRP104      0.1605
     11  C         48.1700   16.8810    9.1680 C.2   104  TRP104      0.2264
     12  O         48.6470   17.9210    8.7170 O.2   104  TRP104     -0.2867
     13  CB        46.9130   17.5120   11.2430 C.3   104  TRP104      0.0550
     14  CG        45.6440   17.3170   10.4640 C.ar  104  TRP104      0.0003
     15  CD1       45.1500   18.0940    9.4210 C.ar  104  TRP104      0.0946
     16  CD2       44.7150   16.2270   10.6090 C.ar  104  TRP104      0.0152
     17  NE1       43.9900   17.5220    8.9130 N.ar  104  TRP104     -0.2442
     18  CE2       43.6990   16.3930    9.6320 C.ar  104  TRP104      0.0810
     19  CE3       44.6680   15.1110   11.4460 C.ar  104  TRP104      0.0012
     20  CZ2       42.6380   15.4970    9.4980 C.ar  104  TRP104      0.0191
     21  CZ3       43.6010   14.2190   11.3110 C.ar  104  TRP104      0.0001
     22  CH2       42.6100   14.4220   10.3450 C.ar  104  TRP104      0.0015
     23  N         52.4490   21.2900   17.1570 N.3   131  TYR131     -0.1241
     24  CA        51.3830   20.8150   16.2710 C.3   131  TYR131      0.1605
     25  C         51.4700   21.6480   15.0040 C.2   131  TYR131      0.2264
     26  O         51.4110   22.8900   15.0520 O.2   131  TYR131     -0.2867
     27  CB        50.0330   21.0060   16.9200 C.3   131  TYR131      0.0534
     28  CG        48.8600   20.6730   16.0130 C.ar  131  TYR131     -0.0201
     29  CD1       48.5970   19.3420   15.6410 C.ar  131  TYR131     -0.0009
     30  CD2       48.0030   21.6700   15.5430 C.ar  131  TYR131     -0.0009
     31  CE1       47.5140   19.0100   14.8190 C.ar  131  TYR131      0.0417
     32  CE2       46.9240   21.3330   14.7230 C.ar  131  TYR131      0.0417
     33  CZ        46.6900   20.0150   14.3660 C.ar  131  TYR131      0.1957
     34  OH        45.6110   19.7400   13.5280 O.3   131  TYR131     -0.2866
     35  N         49.7310   21.7660   11.2460 N.3   133  GLU133     -0.1245
     36  CA        48.5930   21.3330   10.4440 C.3   133  GLU133      0.1567
     37  C         48.8270   21.7250    9.0070 C.2   133  GLU133      0.2260
     38  O         48.9110   22.9270    8.6850 O.2   133  GLU133     -0.2867
     39  CB        47.3260   21.9560   11.0100 C.3   133  GLU133      0.0388
     40  CG        46.0530   21.4470   10.4740 C.3   133  GLU133      0.1160
     41  CD        44.8510   22.1660   11.1070 C.2   133  GLU133      0.3649
     42  OE1       44.6270   22.0390   12.3430 O.co2 133  GLU133     -0.2457
     43  OE2       44.1290   22.8370   10.3500 O.co2 133  GLU133     -0.2457
     44  N         52.0410   25.4200   16.2260 N.3   140  ARG140     -0.1245
     45  CA        51.7630   25.9340   17.5570 C.3   140  ARG140      0.1563
     46  C         51.8680   24.8710   18.5960 C.2   140  ARG140      0.2260
     47  O         51.6230   23.6710   18.3220 O.2   140  ARG140     -0.2867
     48  CB        50.4020   26.5840   17.6270 C.3   140  ARG140      0.0307
     49  CG        49.2670   25.6560   17.3590 C.3   140  ARG140      0.0489
     50  CD        47.9380   26.3990   17.2400 C.3   140  ARG140      0.2205
     51  NE        46.8980   25.5210   16.6790 N.pl3 140  ARG140     -0.0865
     52  CZ        46.2000   24.6370   17.3780 C.cat 140  ARG140      0.5346
     53  NH1       46.4130   24.4820   18.6770 N.pl3 140  ARG140      0.1354
     54  NH2       45.2610   23.9000   16.7810 N.pl3 140  ARG140      0.1354
     55  N         49.1280   17.5380   25.1160 N.3   143  GLN143     -0.1245
     56  CA        48.5920   16.2330   24.7530 C.3   143  GLN143      0.1566
     57  C         48.8950   15.2710   25.8810 C.2   143  GLN143      0.2260
     58  O         49.8150   15.4950   26.6430 O.2   143  GLN143     -0.2867
     59  CB        49.2300   15.7290   23.4750 C.3   143  GLN143      0.0367
     60  CG        49.0390   16.6440   22.2850 C.3   143  GLN143      0.0905
     61  CD        49.6420   16.1150   21.0250 C.2   143  GLN143      0.2608
     62  OE1       50.4160   15.1380   21.0340 O.2   143  GLN143     -0.2717
     63  NE2       49.2480   16.7140   19.9020 N.am  143  GLN143     -0.0878
     64  N         45.3950    8.2020   23.4580 N.3   155  TYR155     -0.1241
     65  CA        45.8070    9.5500   23.0890 C.3   155  TYR155      0.1605
     66  C         44.6880   10.5030   23.5730 C.2   155  TYR155      0.2264
     67  O         43.5180   10.1960   23.4230 O.2   155  TYR155     -0.2867
     68  CB        46.0140    9.6990   21.5500 C.3   155  TYR155      0.0534
     69  CG        46.1170   11.1630   21.2120 C.ar  155  TYR155     -0.0201
     70  CD1       47.3300   11.8400   21.3480 C.ar  155  TYR155     -0.0009
     71  CD2       44.9640   11.9130   20.8960 C.ar  155  TYR155     -0.0009
     72  CE1       47.3800   13.2440   21.1100 C.ar  155  TYR155      0.0417
     73  CE2       45.0060   13.2740   20.7150 C.ar  155  TYR155      0.0417
     74  CZ        46.2210   13.9350   20.8300 C.ar  155  TYR155      0.1957
     75  OH        46.2440   15.3110   20.5950 O.3   155  TYR155     -0.2866
     76  N         43.6930   14.9190   23.5890 N.3   157  ASN157     -0.1240
     77  CA        43.9060   16.3660   23.5530 C.3   157  ASN157      0.1653
     78  C         43.7260   16.9690   24.9390 C.2   157  ASN157      0.2266
     79  O         42.7250   16.6800   25.6320 O.2   157  ASN157     -0.2867
     80  CB        42.8880   17.0240   22.6210 C.3   157  ASN157      0.1155
     81  CG        43.0020   18.5530   22.6000 C.2   157  ASN157      0.2627
     82  OD1       42.3580   19.2610   23.4070 O.2   157  ASN157     -0.2716
     83  ND2       43.7960   19.0720   21.6630 N.am  157  ASN157     -0.0877
     84  N         39.1590   20.4900   23.3340 N.3   161  SER161     -0.1217
     85  CA        38.2990   19.5890   22.4920 C.3   161  SER161      0.1889
     86  C         37.8130   18.3040   23.1840 C.2   161  SER161      0.2288
     87  O         36.8150   17.7260   22.7940 O.2   161  SER161     -0.2866
     88  CB        39.0590   19.1190   21.2590 C.3   161  SER161      0.2089
     89  OG        40.0410   18.1830   21.6490 O.3   161  SER161     -0.2183
     90  N         39.0250   15.5640   22.6620 N.3   163  PHE163     -0.1241
     91  CA        39.2290   14.4400   21.7490 C.3   163  PHE163      0.1605
     92  C         40.1070   13.3430   22.3740 C.2   163  PHE163      0.2264
     93  O         41.1560   13.6050   22.9400 O.2   163  PHE163     -0.2867
     94  CB        39.8640   14.8930   20.4270 C.3   163  PHE163      0.0534
     95  CG        40.0760   13.7560   19.4410 C.ar  163  PHE163     -0.0203
     96  CD1       39.0070   13.2390   18.7430 C.ar  163  PHE163     -0.0042
     97  CD2       41.3370   13.1580   19.2850 C.ar  163  PHE163     -0.0042
     98  CE1       39.1830   12.1700   17.8790 C.ar  163  PHE163     -0.0003
     99  CE2       41.5240   12.1170   18.4090 C.ar  163  PHE163     -0.0003
    100  CZ        40.4320   11.6240   17.6980 C.ar  163  PHE163     -0.0000
    101  N         44.4600    3.9480   13.5750 N.3   178  TYR178     -0.1241
    102  CA        44.0540    5.1650   14.2900 C.3   178  TYR178      0.1605
    103  C         42.5450    5.1680   14.0440 C.2   178  TYR178      0.2264
    104  O         42.0610    5.6650   13.0370 O.2   178  TYR178     -0.2867
    105  CB        44.7430    6.3900   13.7130 C.3   178  TYR178      0.0534
    106  CG        44.7030    7.5490   14.6760 C.ar  178  TYR178     -0.0201
    107  CD1       43.5060    7.9270   15.2920 C.ar  178  TYR178     -0.0009
    108  CD2       45.8550    8.2880   14.9580 C.ar  178  TYR178     -0.0009
    109  CE1       43.4600    9.0030   16.1700 C.ar  178  TYR178      0.0417
    110  CE2       45.8190    9.3900   15.8240 C.ar  178  TYR178      0.0417
    111  CZ        44.6270    9.7230   16.4470 C.ar  178  TYR178      0.1957
    112  OH        44.5440   10.7840   17.3220 O.3   178  TYR178     -0.2866
    113  N         40.1460    7.3410   11.7600 N.3   181  LEU181     -0.1245
    114  CA        40.9160    8.3960   11.1120 C.3   181  LEU181      0.1561
    115  C         41.9470    7.8900   10.0950 C.2   181  LEU181      0.2260
    116  O         42.0480    8.4770    9.0230 O.2   181  LEU181     -0.2867
    117  CB        41.6420    9.2720   12.1270 C.3   181  LEU181      0.0270
    118  CG        40.7410   10.2290   12.8980 C.3   181  LEU181      0.0019
    119  CD1       41.6350   11.0730   13.7390 C.3   181  LEU181      0.0001
    120  CD2       39.9540   11.0740   11.9860 C.3   181  LEU181      0.0001
@<TRIPOS>BOND
     1    38    37    2
     2    12    11    2
     3    17    15   ar
     4    17    18   ar
     5    37    36    1
     6   116   115    2
     7    11    10    1
     8    15    14   ar
     9    20    18   ar
    10    20    22   ar
    11    18    16   ar
    12   115   114    1
    13    22    21   ar
    14    43    41   ar
    15    36    39    1
    16    36    35    1
    17    14    16   ar
    18    14    13    1
    19    40    39    1
    20    40    41    1
    21    16    19   ar
    22    10     9    1
    23    10    13    1
    24    41    42   ar
    25   114   113    1
    26   114   117    1
    27    21    19   ar
    28   120   118    1
    29   117   118    1
    30   118   119    1
    31   104   103    2
    32    34    33    1
    33   101   102    1
    34   105   102    1
    35   105   106    1
    36   103   102    1
    37     3     4    2
    38     3     2    1
    39    33    32   ar
    40    33    31   ar
    41   106   108   ar
    42   106   107   ar
    43    32    30   ar
    44    31    29   ar
    45   108   110   ar
    46    25    26    2
    47    25    24    1
    48     7     6   ar
    49   107   109   ar
    50     2     1    1
    51     2     5    1
    52    30    28   ar
    53    29    28   ar
    54   110   111   ar
    55    28    27    1
    56   109   111   ar
    57    44    45    1
    58    24    27    1
    59    24    23    1
    60     6     5    1
    61     6     8   ar
    62   111   112    1
    63    51    50    1
    64    51    52    2
    65    54    52    1
    66    50    49    1
    67    49    48    1
    68    52    53    1
    69    45    48    1
    70    45    46    1
    71   100    98   ar
    72   100    99   ar
    73    98    96   ar
    74    47    46    2
    75    99    97   ar
    76    96    95   ar
    77    97    95   ar
    78    95    94    1
    79    63    61   am
    80    94    91    1
    81    75    74    1
    82    73    74   ar
    83    73    71   ar
    84    74    72   ar
    85    71    69   ar
    86    61    62    2
    87    61    60    1
    88    72    70   ar
    89    69    70   ar
    90    69    68    1
    91    88    89    1
    92    88    85    1
    93    68    65    1
    94    83    81   am
    95    91    92    1
    96    91    90    1
    97    60    59    1
    98    92    93    2
    99    85    86    1
   100    85    84    1
   101    81    80    1
   102    81    82    2
   103    80    77    1
   104    87    86    2
   105    65    64    1
   106    65    66    1
   107    67    66    2
   108    59    56    1
   109    77    76    1
   110    77    78    1
   111    56    55    1
   112    56    57    1
   113    78    79    2
   114    57    58    2
