@<TRIPOS>MOLECULE
tmp/2h1uB00.pdb
 146 143 0 0 0
SMALL
GASTEIGER

@<TRIPOS>ATOM
      1  N          3.6600   23.3740   30.5210 N.3    20  TYR20      -0.1241
      2  CA         4.2760   22.1320   30.0800 C.3    20  TYR20       0.1605
      3  C          4.7970   22.2830   28.6710 C.2    20  TYR20       0.2264
      4  O          4.3210   23.1310   27.9030 O.2    20  TYR20      -0.2867
      5  CB         3.3160   20.9530   30.1840 C.3    20  TYR20       0.0534
      6  CG         2.1240   21.0350   29.2740 C.ar   20  TYR20      -0.0201
      7  CD1        2.2040   20.5450   27.9740 C.ar   20  TYR20      -0.0009
      8  CD2        0.9090   21.5880   29.7000 C.ar   20  TYR20      -0.0009
      9  CE1        1.1260   20.6190   27.1280 C.ar   20  TYR20       0.0417
     10  CE2       -0.1980   21.6430   28.8540 C.ar   20  TYR20       0.0417
     11  CZ        -0.0720   21.1630   27.5660 C.ar   20  TYR20       0.1957
     12  OH        -1.1490   21.2160   26.7070 O.3    20  TYR20      -0.2866
     13  N          0.6330   27.0890   29.0450 N.3    28  HIS28      -0.1226
     14  CA         0.1160   27.2270   30.4060 C.3    28  HIS28       0.1752
     15  C         -0.9180   26.1750   30.7050 C.2    28  HIS28       0.2597
     16  O         -1.8610   26.0170   29.9190 O.2    28  HIS28      -0.2718
     17  CB        -0.5450   28.5980   30.5460 C.3    28  HIS28       0.0759
     18  CG        -1.2760   28.7630   31.8270 C.ar   28  HIS28       0.0818
     19  ND1       -0.6890   29.3130   32.9450 N.ar   28  HIS28      -0.2268
     20  CD2       -2.5240   28.3880   32.1880 C.ar   28  HIS28       0.1154
     21  CE1       -1.5580   29.2970   33.9350 C.ar   28  HIS28       0.1986
     22  NE2       -2.6850   28.7630   33.5040 N.ar   28  HIS28      -0.2212
     23  N         -0.7850   25.5090   31.8730 N.am   29  THR29      -0.1939
     24  CA        -1.7730   24.5120   32.2850 C.3    29  THR29       0.2028
     25  C         -2.4320   24.7870   33.6440 C.2    29  THR29       0.2642
     26  O         -3.5920   24.4240   33.8580 O.2    29  THR29      -0.2714
     27  CB        -1.2220   23.0750   32.2500 C.3    29  THR29       0.1808
     28  OG1       -2.3080   22.1540   32.4530 O.3    29  THR29      -0.2208
     29  CG2       -0.1280   22.8550   33.3070 C.3    29  THR29       0.0379
     30  N         -1.6930   25.4420   34.5350 N.am   30  CYS30      -0.1967
     31  CA        -2.1430   25.6400   35.9310 C.3    30  CYS30       0.1712
     32  C         -1.5200   26.8610   36.5390 C.2    30  CYS30       0.2296
     33  O         -0.5240   27.3770   36.0320 O.2    30  CYS30      -0.2864
     34  CB        -1.7950   24.4280   36.8160 C.3    30  CYS30       0.0983
     35  SG        -2.9940   23.0350   36.6440 S.3    30  CYS30      -0.0798
     36  N         -3.6990   17.6620   41.1170 N.3    45  HIS45      -0.1226
     37  CA        -4.2190   17.2060   39.8240 C.3    45  HIS45       0.1752
     38  C         -3.5190   17.8880   38.6560 C.2    45  HIS45       0.2596
     39  O         -3.5910   17.4300   37.5130 O.2    45  HIS45      -0.2718
     40  CB        -5.7470   17.3450   39.7320 C.3    45  HIS45       0.0759
     41  CG        -6.2450   18.7410   39.4720 C.ar   45  HIS45       0.0818
     42  ND1       -6.7520   19.5540   40.4710 N.ar   45  HIS45      -0.2268
     43  CD2       -6.3380   19.4570   38.3200 C.ar   45  HIS45       0.1154
     44  CE1       -7.1360   20.7090   39.9420 C.ar   45  HIS45       0.1986
     45  NE2       -6.8750   20.6840   38.6430 N.ar   45  HIS45      -0.2212
     46  N         -2.8070   18.9710   38.9410 N.am   46  CYS46      -0.1970
     47  CA        -2.0700   19.6700   37.8890 C.3    46  CYS46       0.1712
     48  C         -0.8660   18.8730   37.4220 C.2    46  CYS46       0.2296
     49  O         -0.4410   19.0160   36.2750 O.2    46  CYS46      -0.2864
     50  CB        -1.5950   21.0140   38.3960 C.3    46  CYS46       0.0983
     51  SG        -2.9570   22.2070   38.5160 S.3    46  CYS46      -0.0798
     52  N         -0.3210   14.2910   35.0500 N.3    49  ARG49      -0.1245
     53  CA         0.2420   13.8570   33.7640 C.3    49  ARG49       0.1563
     54  C          1.7730   13.8410   33.7930 C.2    49  ARG49       0.2260
     55  O          2.4020   14.6560   34.4800 O.2    49  ARG49      -0.2867
     56  CB        -0.2920   14.6950   32.5830 C.3    49  ARG49       0.0307
     57  CG        -1.7930   14.4710   32.4460 C.3    49  ARG49       0.0489
     58  CD        -2.3730   15.0430   31.1260 C.3    49  ARG49       0.2205
     59  NE        -2.0080   16.4270   30.8720 N.pl3  49  ARG49      -0.0865
     60  CZ        -2.7030   17.4410   31.3170 C.cat  49  ARG49       0.5346
     61  NH1       -3.8040   17.2490   32.0080 N.pl3  49  ARG49       0.1354
     62  NH2       -2.2210   18.6520   31.1710 N.pl3  49  ARG49       0.1354
     63  N         -9.6610   29.7670   31.7790 N.3   134  LEU134     -0.1245
     64  CA       -10.6900   30.1580   30.7870 C.3   134  LEU134      0.1561
     65  C        -11.5130   31.3440   31.2660 C.2   134  LEU134      0.2260
     66  O        -11.8390   31.4430   32.4590 O.2   134  LEU134     -0.2867
     67  CB       -11.6380   28.9910   30.4860 C.3   134  LEU134      0.0270
     68  CG       -11.0070   27.6540   30.0980 C.3   134  LEU134      0.0019
     69  CD1      -12.1430   26.7800   29.5830 C.3   134  LEU134      0.0001
     70  CD2       -9.8070   27.6880   29.1090 C.3   134  LEU134      0.0001
     71  N         -8.0920   30.4220   27.5080 N.3   141  LEU141     -0.1245
     72  CA        -7.2900   31.0580   28.5510 C.3   141  LEU141      0.1561
     73  C         -7.2220   32.5650   28.3530 C.2   141  LEU141      0.2260
     74  O         -7.2510   33.0810   27.2190 O.2   141  LEU141     -0.2867
     75  CB        -5.8460   30.5590   28.5080 C.3   141  LEU141      0.0270
     76  CG        -5.6190   29.0690   28.7220 C.3   141  LEU141      0.0019
     77  CD1       -4.1420   28.7570   28.5550 C.3   141  LEU141      0.0001
     78  CD2       -6.0780   28.6420   30.1360 C.3   141  LEU141      0.0001
     79  N        -13.6000   30.5770   39.1810 N.3   183  GLY183     -0.1210
     80  CA       -12.4570   29.9540   38.4940 C.3   183  GLY183      0.1956
     81  C        -12.9250   29.1800   37.2680 C.2   183  GLY183      0.2612
     82  O        -14.1170   28.9300   37.1160 O.2   183  GLY183     -0.2717
     83  N        -11.9810   28.7910   36.4240 N.am  184  CYS184     -0.1956
     84  CA       -12.3250   27.9430   35.2840 C.3   184  CYS184      0.1843
     85  C        -11.0480   27.2580   34.8540 C.2   184  CYS184      0.2625
     86  O         -9.9810   27.5310   35.3820 O.2   184  CYS184     -0.2714
     87  CB       -12.8860   28.8210   34.1900 C.3   184  CYS184      0.0997
     88  SG       -13.9690   27.9760   33.0050 S.3   184  CYS184     -0.0797
     89  N        -11.1320   26.3460   33.9000 N.am  185  GLN185     -0.1963
     90  CA        -9.9640   25.5320   33.5970 C.3   185  GLN185      0.1733
     91  C         -8.7020   26.3300   33.3020 C.2   185  GLN185      0.2617
     92  O         -8.7100   27.2650   32.5070 O.2   185  GLN185     -0.2715
     93  CB       -10.2750   24.5650   32.4560 C.3   185  GLN185      0.0408
     94  CG       -11.0770   23.3400   32.9520 C.3   185  GLN185      0.0908
     95  CD       -12.5670   23.6550   33.1750 C.2   185  GLN185      0.2608
     96  OE1      -13.0730   24.7030   32.7550 O.2   185  GLN185     -0.2717
     97  NE2      -13.2830   22.7390   33.8430 N.am  185  GLN185     -0.0878
     98  N         -7.6100   25.9350   33.9440 N.am  186  GLY186     -0.1940
     99  CA        -6.3730   26.6610   33.8140 C.3   186  GLY186      0.2014
    100  C         -6.0910   27.5350   35.0330 C.2   186  GLY186      0.2639
    101  O         -4.9700   28.0560   35.1630 O.2   186  GLY186     -0.2714
    102  N         -7.0910   27.6780   35.9020 N.am  187  ASP187     -0.1957
    103  CA        -6.8860   28.4320   37.1630 C.3   187  ASP187      0.1840
    104  C         -6.4330   27.4610   38.2260 C.2   187  ASP187      0.2622
    105  O         -5.8700   27.8760   39.2260 O.2   187  ASP187     -0.2715
    106  CB        -8.1740   29.1400   37.6230 C.3   187  ASP187      0.1450
    107  CG        -8.5350   30.3300   36.7550 C.2   187  ASP187      0.3671
    108  OD1       -7.6220   31.0280   36.3080 O.co2 187  ASP187     -0.2456
    109  OD2       -9.7570   30.5170   36.5260 O.co2 187  ASP187     -0.2456
    110  N         -6.7380   26.1700   38.0160 N.am  188  SER188     -0.1950
    111  CA        -6.3330   25.0930   38.9460 C.3   188  SER188      0.1924
    112  C         -4.9460   25.3210   39.5090 C.2   188  SER188      0.2314
    113  O         -4.0260   25.6790   38.7670 O.2   188  SER188     -0.2863
    114  CB        -6.2720   23.7590   38.1950 C.3   188  SER188      0.2116
    115  OG        -7.5850   23.2820   37.9210 O.3   188  SER188     -0.2180
    116  N         -6.6540   26.4150   44.0510 N.3   206  THR206     -0.1203
    117  CA        -7.8430   26.1470   43.2300 C.3   206  THR206      0.1994
    118  C         -7.9190   24.6830   42.8090 C.2   206  THR206      0.2619
    119  O         -6.9530   24.1680   42.2820 O.2   206  THR206     -0.2717
    120  CB        -7.8240   27.0330   41.9810 C.3   206  THR206      0.1784
    121  OG1       -7.7140   28.3990   42.4070 O.3   206  THR206     -0.2211
    122  CG2       -9.1540   26.8940   41.1640 C.3   206  THR206      0.0376
    123  N         -9.0530   24.0340   43.1120 N.am  207  SER207     -0.1937
    124  CA        -9.1860   22.5660   42.9130 C.3   207  SER207      0.2055
    125  C        -10.2260   22.1280   41.8750 C.2   207  SER207      0.2643
    126  O         -9.9080   21.3870   40.9280 O.2   207  SER207     -0.2714
    127  CB        -9.4540   21.8260   44.2500 C.3   207  SER207      0.2130
    128  OG        -9.4770   20.3850   44.0840 O.3   207  SER207     -0.2179
    129  N        -11.4670   22.5700   42.0480 N.am  208  PHE208     -0.1959
    130  CA       -12.4910   22.1860   41.0850 C.3   208  PHE208      0.1771
    131  C        -13.6780   23.1120   40.9880 C.2   208  PHE208      0.2619
    132  O        -13.9360   23.8810   41.8890 O.2   208  PHE208     -0.2715
    133  CB       -12.9300   20.7210   41.3000 C.3   208  PHE208      0.0574
    134  CG       -13.5800   20.4280   42.6420 C.ar  208  PHE208     -0.0200
    135  CD1      -12.7970   20.0290   43.7250 C.ar  208  PHE208     -0.0042
    136  CD2      -14.9710   20.4880   42.7990 C.ar  208  PHE208     -0.0042
    137  CE1      -13.3970   19.7160   44.9610 C.ar  208  PHE208     -0.0003
    138  CE2      -15.5770   20.1740   44.0220 C.ar  208  PHE208     -0.0003
    139  CZ       -14.7660   19.7810   45.1110 C.ar  208  PHE208     -0.0000
    140  N        -14.3690   23.0050   39.8500 N.am  209  VAL209     -0.1977
    141  CA       -15.6600   23.6140   39.6010 C.3   209  VAL209      0.1596
    142  C        -16.6250   22.4910   39.1500 C.2   209  VAL209      0.2287
    143  O        -16.2150   21.3400   38.9800 O.2   209  VAL209     -0.2864
    144  CB       -15.5610   24.7210   38.5170 C.3   209  VAL209      0.0276
    145  CG1      -14.6650   25.9070   39.0020 C.3   209  VAL209      0.0022
    146  CG2      -14.9960   24.1470   37.2210 C.3   209  VAL209      0.0022
@<TRIPOS>BOND
     1    12    11    1
     2     9    11   ar
     3     9     7   ar
     4    74    73    2
     5    71    72    1
     6    11    10   ar
     7     4     3    2
     8     7     6   ar
     9    73    72    1
    10    75    72    1
    11    75    76    1
    12    77    76    1
    13     3     2    1
    14    76    78    1
    15    10     8   ar
    16    13    14    1
    17    70    68    1
    18     6     8   ar
    19     6     5    1
    20    69    68    1
    21    16    15    2
    22     2     5    1
    23     2     1    1
    24    68    67    1
    25    14    17    1
    26    14    15    1
    27    67    64    1
    28    17    18    1
    29    15    23   am
    30    64    65    1
    31    64    63    1
    32    59    58    1
    33    59    60    2
    34    58    57    1
    35    62    60    1
    36    65    66    2
    37    60    61    1
    38    18    20   ar
    39    18    19   ar
    40    23    24    1
    41    20    22   ar
    42    27    24    1
    43    27    28    1
    44    27    29    1
    45    24    25    1
    46    57    56    1
    47    93    94    1
    48    93    90    1
    49    92    91    2
    50    56    53    1
    51    96    95    2
    52    19    21   ar
    53    94    95    1
    54    88    87    1
    55    95    97   am
    56    91    90    1
    57    91    98   am
    58    22    21   ar
    59    90    89    1
    60    25    26    2
    61    25    30   am
    62    53    54    1
    63    53    52    1
    64    54    55    2
    65    99    98    1
    66    99   100    1
    67    89    85   am
    68    87    84    1
    69    30    31    1
    70    85    84    1
    71    85    86    2
    72   100   101    2
    73   100   102   am
    74    84    83    1
    75   102   103    1
    76    31    32    1
    77    31    34    1
    78    33    32    2
    79    49    48    2
    80   108   107   ar
    81    83    81   am
    82   109   107   ar
    83    35    34    1
    84    35    51    1
    85   107   106    1
    86    82    81    2
    87   103   106    1
    88   103   104    1
    89   146   144    1
    90    81    80    1
    91    48    47    1
    92    39    38    2
    93    47    50    1
    94    47    46    1
    95   115   114    1
    96   110   104   am
    97   110   111    1
    98   114   111    1
    99   104   105    2
   100    43    45   ar
   101    43    41   ar
   102    50    51    1
   103    80    79    1
   104   144   145    1
   105   144   141    1
   106    45    44   ar
   107    38    46   am
   108    38    37    1
   109   113   112    2
   110   111   112    1
   111   143   142    2
   112   142   141    1
   113    41    40    1
   114    41    42   ar
   115   141   140    1
   116    40    37    1
   117    37    36    1
   118   140   131   am
   119    44    42   ar
   120   126   125    2
   121   131   130    1
   122   131   132    2
   123   130   133    1
   124   130   129    1
   125   122   120    1
   126   133   134    1
   127   125   129   am
   128   125   124    1
   129   120   121    1
   130   120   117    1
   131   119   118    2
   132   134   136   ar
   133   134   135   ar
   134   136   138   ar
   135   118   123   am
   136   118   117    1
   137   124   123    1
   138   124   127    1
   139   117   116    1
   140   135   137   ar
   141   138   139   ar
   142   128   127    1
   143   137   139   ar
