@<TRIPOS>MOLECULE
tmp/2h23A01.pdb
 139 136 0 0 0
SMALL
GASTEIGER

@<TRIPOS>ATOM
      1  N         66.1540  128.3420   59.8020 N.3   172  SER172     -0.1202
      2  CA        67.1590  129.0970   59.0820 C.3   172  SER172      0.2020
      3  C         66.7090  130.4790   58.6610 C.2   172  SER172      0.2619
      4  O         67.4650  131.1930   58.0040 O.2   172  SER172     -0.2717
      5  CB        67.6100  128.3060   57.8540 C.3   172  SER172      0.2103
      6  OG        66.5500  128.1460   56.9340 O.3   172  SER172     -0.2182
      7  N         65.4960  130.8740   59.0390 N.am  173  ARG173     -0.1965
      8  CA        64.9930  132.1870   58.6510 C.3   173  ARG173      0.1729
      9  C         64.2480  132.9550   59.7310 C.2   173  ARG173      0.2616
     10  O         63.7170  134.0420   59.4790 O.2   173  ARG173     -0.2715
     11  CB        64.0820  132.0460   57.4430 C.3   173  ARG173      0.0348
     12  CG        64.7690  131.4670   56.2580 C.3   173  ARG173      0.0492
     13  CD        63.8400  131.3730   55.0800 C.3   173  ARG173      0.2205
     14  NE        64.5730  130.9400   53.8980 N.pl3 173  ARG173     -0.0865
     15  CZ        65.2380  131.7520   53.0840 C.cat 173  ARG173      0.5346
     16  NH1       65.2610  133.0600   53.2980 N.pl3 173  ARG173      0.1354
     17  NH2       65.9040  131.2400   52.0640 N.pl3 173  ARG173      0.1354
     18  N         64.2030  132.3990   60.9310 N.am  174  ALA174     -0.1963
     19  CA        63.4970  133.0510   62.0210 C.3   174  ALA174      0.1728
     20  C         64.3830  133.9790   62.8440 C.2   174  ALA174      0.2616
     21  O         65.5080  133.6210   63.1910 O.2   174  ALA174     -0.2715
     22  CB        62.8720  131.9910   62.9310 C.3   174  ALA174      0.0334
     23  N         63.8730  135.1710   63.1490 N.am  175  PHE175     -0.1960
     24  CA        64.6010  136.1200   63.9820 C.3   175  PHE175      0.1771
     25  C         64.0300  136.0400   65.3920 C.2   175  PHE175      0.2620
     26  O         63.1290  136.7910   65.7450 O.2   175  PHE175     -0.2715
     27  CB        64.4330  137.5490   63.4830 C.3   175  PHE175      0.0574
     28  CG        64.9930  137.7900   62.1260 C.ar  175  PHE175     -0.0200
     29  CD1       64.3010  137.3840   60.9930 C.ar  175  PHE175     -0.0042
     30  CD2       66.2070  138.4480   61.9730 C.ar  175  PHE175     -0.0042
     31  CE1       64.8090  137.6370   59.7110 C.ar  175  PHE175     -0.0003
     32  CE2       66.7270  138.7030   60.7010 C.ar  175  PHE175     -0.0003
     33  CZ        66.0250  138.2980   59.5670 C.ar  175  PHE175     -0.0000
     34  N         64.5520  135.1240   66.1960 N.am  176  SER176     -0.1936
     35  CA        64.0860  134.9580   67.5650 C.3   176  SER176      0.2055
     36  C         64.7210  135.9810   68.5010 C.2   176  SER176      0.2642
     37  O         64.9090  135.7160   69.6930 O.2   176  SER176     -0.2714
     38  CB        64.4080  133.5450   68.0510 C.3   176  SER176      0.2130
     39  OG        65.7590  133.2170   67.7670 O.3   176  SER176     -0.2179
     40  N         65.0440  137.1520   67.9600 N.am  177  ARG177     -0.1977
     41  CA        65.6650  138.2110   68.7480 C.3   177  ARG177      0.1597
     42  C         64.7980  139.4780   68.7260 C.2   177  ARG177      0.2287
     43  O         64.8490  140.2610   67.7740 O.2   177  ARG177     -0.2864
     44  CB        67.0630  138.5180   68.1910 C.3   177  ARG177      0.0334
     45  CG        67.9660  139.2920   69.1390 C.3   177  ARG177      0.0492
     46  CD        68.5820  138.3850   70.2020 C.3   177  ARG177      0.2205
     47  NE        69.7490  137.6530   69.7070 N.pl3 177  ARG177     -0.0865
     48  CZ        70.9450  138.1980   69.4860 C.cat 177  ARG177      0.5346
     49  NH1       71.9430  137.4500   69.0320 N.pl3 177  ARG177      0.1354
     50  NH2       71.1500  139.4880   69.7250 N.pl3 177  ARG177      0.1354
     51  N         65.0450  138.6160   54.9130 N.3   187  ASP187     -0.1239
     52  CA        65.1750  137.1800   55.0750 C.3   187  ASP187      0.1674
     53  C         66.3760  136.7570   54.2320 C.2   187  ASP187      0.2266
     54  O         66.9570  135.6940   54.4400 O.2   187  ASP187     -0.2867
     55  CB        63.8900  136.5110   54.5650 C.3   187  ASP187      0.1410
     56  CG        63.6190  135.1670   55.2170 C.2   187  ASP187      0.3668
     57  OD1       63.5890  135.0980   56.4640 O.co2 187  ASP187     -0.2456
     58  OD2       63.4160  134.1820   54.4770 O.co2 187  ASP187     -0.2456
     59  N         69.3730  138.1990   54.1010 N.3   189  ILE189     -0.1245
     60  CA        70.6650  138.6540   54.6180 C.3   189  ILE189      0.1561
     61  C         71.4940  137.4390   55.0460 C.2   189  ILE189      0.2260
     62  O         71.0310  136.5900   55.8090 O.2   189  ILE189     -0.2867
     63  CB        70.4690  139.6070   55.8240 C.3   189  ILE189      0.0252
     64  CG1       71.8040  140.2040   56.2520 C.3   189  ILE189      0.0019
     65  CG2       69.8370  138.8640   56.9850 C.3   189  ILE189      0.0019
     66  CD1       72.3330  141.2210   55.3000 C.3   189  ILE189      0.0001
     67  N         71.3040  143.3700   65.0690 N.3   200  HIS200     -0.1226
     68  CA        70.8950  144.0520   63.8470 C.3   200  HIS200      0.1752
     69  C         69.3910  144.2590   63.7270 C.2   200  HIS200      0.2595
     70  O         68.9340  145.1100   62.9610 O.2   200  HIS200     -0.2718
     71  CB        71.3930  143.2620   62.6350 C.3   200  HIS200      0.0759
     72  CG        71.8810  141.8830   62.9690 C.ar  200  HIS200      0.0818
     73  ND1       73.1240  141.6450   63.5160 N.ar  200  HIS200     -0.2268
     74  CD2       71.2900  140.6710   62.8400 C.ar  200  HIS200      0.1154
     75  CE1       73.2790  140.3460   63.7060 C.ar  200  HIS200      0.1986
     76  NE2       72.1800  139.7330   63.3050 N.ar  200  HIS200     -0.2212
     77  N         68.6270  143.4650   64.4690 N.am  201  ALA201     -0.1980
     78  CA        67.1750  143.5690   64.4460 C.3   201  ALA201      0.1597
     79  C         66.7720  144.9360   64.9950 C.2   201  ALA201      0.2287
     80  O         67.5590  145.5940   65.6770 O.2   201  ALA201     -0.2864
     81  CB        66.5540  142.4490   65.2810 C.3   201  ALA201      0.0319
     82  N         75.6610  139.8790   58.3900 N.3   223  ILE223     -0.1231
     83  CA        75.3860  140.0280   59.8140 C.3   223  ILE223      0.1692
     84  C         75.9150  138.7910   60.5300 C.2   223  ILE223      0.2592
     85  O         76.2720  137.7970   59.9000 O.2   223  ILE223     -0.2718
     86  CB        73.8820  140.1310   60.1260 C.3   223  ILE223      0.0266
     87  CG1       73.1500  138.9360   59.5190 C.3   223  ILE223      0.0019
     88  CG2       73.3310  141.4490   59.6260 C.3   223  ILE223      0.0020
     89  CD1       71.7280  138.7990   59.9790 C.3   223  ILE223      0.0001
     90  N         75.9600  138.8540   61.8510 N.am  224  GLN224     -0.1966
     91  CA        76.4260  137.7260   62.6380 C.3   224  GLN224      0.1733
     92  C         75.2160  136.9560   63.1270 C.2   224  GLN224      0.2616
     93  O         74.4730  137.4480   63.9750 O.2   224  GLN224     -0.2715
     94  CB        77.2380  138.2280   63.8340 C.3   224  GLN224      0.0408
     95  CG        77.5560  137.1580   64.8670 C.3   224  GLN224      0.0908
     96  CD        78.1280  135.9090   64.2420 C.2   224  GLN224      0.2608
     97  OE1       78.9210  135.9860   63.3110 O.2   224  GLN224     -0.2717
     98  NE2       77.7390  134.7510   64.7580 N.am  224  GLN224     -0.0878
     99  N         75.0080  135.7520   62.6080 N.am  225  TYR225     -0.1960
    100  CA        73.8560  134.9770   63.0440 C.3   225  TYR225      0.1771
    101  C         73.9070  134.6480   64.5360 C.2   225  TYR225      0.2619
    102  O         72.9160  134.8130   65.2420 O.2   225  TYR225     -0.2715
    103  CB        73.7080  133.6930   62.2180 C.3   225  TYR225      0.0574
    104  CG        73.2220  133.8920   60.7800 C.ar  225  TYR225     -0.0198
    105  CD1       72.9110  132.7900   59.9750 C.ar  225  TYR225     -0.0009
    106  CD2       73.1020  135.1710   60.2200 C.ar  225  TYR225     -0.0009
    107  CE1       72.4930  132.9510   58.6380 C.ar  225  TYR225      0.0417
    108  CE2       72.6850  135.3470   58.8830 C.ar  225  TYR225      0.0417
    109  CZ        72.3830  134.2320   58.0980 C.ar  225  TYR225      0.1957
    110  OH        71.9790  134.3900   56.7840 O.3   225  TYR225     -0.2866
    111  N         75.0500  134.1930   65.0330 N.am  226  ASP226     -0.1971
    112  CA        75.1430  133.8790   66.4580 C.3   226  ASP226      0.1709
    113  C         76.5790  133.5880   66.8650 C.2   226  ASP226      0.2293
    114  O         77.1670  132.5930   66.4550 O.2   226  ASP226     -0.2864
    115  CB        74.2430  132.6820   66.7920 C.3   226  ASP226      0.1436
    116  CG        73.8920  132.6060   68.2650 C.2   226  ASP226      0.3671
    117  OD1       74.8060  132.5950   69.1200 O.co2 226  ASP226     -0.2456
    118  OD2       72.6830  132.5480   68.5700 O.co2 226  ASP226     -0.2456
    119  N         76.9570  129.9800   68.8900 N.3   229  LYS229     -0.1245
    120  CA        76.6920  128.6320   68.4070 C.3   229  LYS229      0.1561
    121  C         77.9790  127.9110   68.0460 C.2   229  LYS229      0.2260
    122  O         78.9620  128.5240   67.6240 O.2   229  LYS229     -0.2867
    123  CB        75.7610  128.6570   67.1930 C.3   229  LYS229      0.0271
    124  CG        74.3370  129.0110   67.5440 C.3   229  LYS229      0.0035
    125  CD        73.4570  129.0410   66.3100 C.3   229  LYS229      0.0206
    126  CE        72.0120  129.3740   66.6650 C.3   229  LYS229      0.1093
    127  NZ        71.1990  129.7110   65.4490 N.3   229  LYS229     -0.1314
    128  N         71.5040  126.0120   60.1480 N.3   238  TYR238     -0.1241
    129  CA        71.6690  126.5010   58.7860 C.3   238  TYR238      0.1605
    130  C         72.4460  125.4110   58.0930 C.2   238  TYR238      0.2264
    131  O         72.6890  124.3530   58.6760 O.2   238  TYR238     -0.2867
    132  CB        72.4630  127.7970   58.7780 C.3   238  TYR238      0.0534
    133  CG        71.9990  128.7480   59.8460 C.ar  238  TYR238     -0.0201
    134  CD1       72.6560  128.8260   61.0680 C.ar  238  TYR238     -0.0009
    135  CD2       70.8650  129.5410   59.6500 C.ar  238  TYR238     -0.0009
    136  CE1       72.2020  129.6690   62.0770 C.ar  238  TYR238      0.0417
    137  CE2       70.3960  130.3850   60.6490 C.ar  238  TYR238      0.0417
    138  CZ        71.0680  130.4440   61.8610 C.ar  238  TYR238      0.1957
    139  OH        70.5880  131.2550   62.8650 O.3   238  TYR238     -0.2866
@<TRIPOS>BOND
     1    17    15    1
     2    15    16    1
     3    15    14    2
     4    14    13    1
     5    59    60    1
     6    53    54    2
     7    53    52    1
     8    58    56   ar
     9    55    52    1
    10    55    56    1
    11    60    61    1
    12    60    63    1
    13    51    52    1
    14    61    62    2
    15    13    12    1
    16    56    57   ar
    17    66    64    1
    18    63    64    1
    19    63    65    1
    20    12    11    1
    21   110   109    1
    22     6     5    1
    23    11     8    1
    24     5     2    1
    25     4     3    2
    26   130   131    2
    27   130   129    1
    28   109   107   ar
    29   109   108   ar
    30    82    83    1
    31   107   105   ar
    32     8     7    1
    33     8     9    1
    34     3     7   am
    35     3     2    1
    36   132   129    1
    37   132   133    1
    38   129   128    1
    39   108   106   ar
    40     2     1    1
    41    10     9    2
    42    87    89    1
    43    87    86    1
    44    33    31   ar
    45    33    32   ar
    46    88    86    1
    47   135   133   ar
    48   135   137   ar
    49    31    29   ar
    50     9    18   am
    51    83    86    1
    52    83    84    1
    53   133   134   ar
    54    85    84    2
    55   105   104   ar
    56   106   104   ar
    57    84    90   am
    58   137   138   ar
    59    32    30   ar
    60   104   103    1
    61    18    19    1
    62    29    28   ar
    63   134   136   ar
    64    90    91    1
    65   138   136   ar
    66   138   139    1
    67    30    28   ar
    68    19    20    1
    69    19    22    1
    70    28    27    1
    71   103   100    1
    72    99   100    1
    73    99    92   am
    74    71    72    1
    75    71    68    1
    76    91    92    1
    77    91    94    1
    78    74    72   ar
    79    74    76   ar
    80    20    23   am
    81    20    21    2
    82    70    69    2
    83    72    73   ar
    84   100   101    1
    85    92    93    2
    86    23    24    1
    87    76    75   ar
    88    97    96    2
    89    27    24    1
    90    73    75   ar
    91    69    68    1
    92    69    77   am
    93    94    95    1
    94    68    67    1
    95    24    25    1
    96    96    98   am
    97    96    95    1
    98    78    77    1
    99    78    79    1
   100    78    81    1
   101   101   111   am
   102   101   102    2
   103    79    80    2
   104   111   112    1
   105    25    26    2
   106    25    34   am
   107   127   126    1
   108    34    35    1
   109   125   126    1
   110   125   124    1
   111   114   113    2
   112   112   115    1
   113   112   113    1
   114   115   116    1
   115   123   124    1
   116   123   120    1
   117    35    38    1
   118    35    36    1
   119   122   121    2
   120    39    38    1
   121    43    42    2
   122    40    36   am
   123    40    41    1
   124   121   120    1
   125    44    41    1
   126    44    45    1
   127   116   118   ar
   128   116   117   ar
   129   120   119    1
   130    36    37    2
   131    42    41    1
   132    49    48    1
   133    45    46    1
   134    48    47    2
   135    48    50    1
   136    47    46    1
