@<TRIPOS>MOLECULE
tmp/2h2eB00.pdb
 184 181 0 0 0
SMALL
GASTEIGER

@<TRIPOS>ATOM
      1  N        104.7400   43.3170   88.0880 N.3    31  THR31      -0.1203
      2  CA       105.5140   44.3280   88.7880 C.3    31  THR31       0.1994
      3  C        104.6480   45.0140   89.8400 C.2    31  THR31       0.2618
      4  O        105.1150   45.3370   90.9300 O.2    31  THR31      -0.2717
      5  CB       106.0380   45.4050   87.7970 C.3    31  THR31       0.1784
      6  OG1      107.2560   44.9570   87.1960 O.3    31  THR31      -0.2211
      7  CG2      106.2780   46.7350   88.4960 C.3    31  THR31       0.0376
      8  N        103.3800   45.2390   89.5170 N.am   32  GLU32      -0.1965
      9  CA       102.4790   45.9000   90.4600 C.3    32  GLU32       0.1733
     10  C        101.6570   44.9460   91.3410 C.2    32  GLU32       0.2617
     11  O        100.5480   45.2680   91.7530 O.2    32  GLU32      -0.2715
     12  CB       101.5570   46.8800   89.7080 C.3    32  GLU32       0.0429
     13  CG       101.0710   46.3980   88.3500 C.3    32  GLU32       0.1163
     14  CD       101.9040   46.9180   87.1840 C.2    32  GLU32       0.3649
     15  OE1      101.8670   48.1390   86.9270 O.co2  32  GLU32      -0.2457
     16  OE2      102.5900   46.1130   86.5170 O.co2  32  GLU32      -0.2457
     17  N        102.2290   43.7860   91.6560 N.am   33  GLY33      -0.1940
     18  CA       101.5390   42.8180   92.4980 C.3    33  GLY33       0.2014
     19  C        100.9200   41.7480   91.6310 C.2    33  GLY33       0.2638
     20  O        101.6480   41.0430   90.9290 O.2    33  GLY33      -0.2714
     21  N         99.5950   41.6100   91.6940 N.am   34  LEU34      -0.1977
     22  CA        98.8860   40.6570   90.8430 C.3    34  LEU34       0.1596
     23  C         98.1630   41.4810   89.7920 C.2    34  LEU34       0.2287
     24  O         97.6830   42.5770   90.0730 O.2    34  LEU34      -0.2864
     25  CB        97.8770   39.8230   91.6330 C.3    34  LEU34       0.0297
     26  CG        98.4950   38.7880   92.5750 C.3    34  LEU34       0.0022
     27  CD1       97.3880   37.9330   93.1660 C.3    34  LEU34       0.0001
     28  CD2       99.5020   37.9320   91.8240 C.3    34  LEU34       0.0001
     29  N         94.0050   36.4770   98.7320 N.3   101  ILE101     -0.1245
     30  CA        94.6530   37.0970   97.5890 C.3   101  ILE101      0.1561
     31  C         94.8820   38.5670   97.9120 C.2   101  ILE101      0.2260
     32  O         95.7010   39.2310   97.2840 O.2   101  ILE101     -0.2867
     33  CB        93.7550   36.9740   96.3310 C.3   101  ILE101      0.0252
     34  CG1       93.6680   35.5060   95.9180 C.3   101  ILE101      0.0019
     35  CG2       94.2840   37.8300   95.1970 C.3   101  ILE101      0.0019
     36  CD1       95.0150   34.8310   95.7780 C.3   101  ILE101      0.0001
     37  N         96.2770   41.8400   99.5340 N.3   103  PRO103     -0.2116
     38  CA        97.5530   42.1630  100.1650 C.3   103  PRO103      0.1372
     39  C         97.2190   42.6040  101.5740 C.2   103  PRO103      0.2244
     40  O         96.0840   42.9940  101.8440 O.2   103  PRO103     -0.2868
     41  CB        98.0800   43.3140   99.3110 C.3   103  PRO103      0.0268
     42  CG        97.4120   43.1140   97.9850 C.3   103  PRO103      0.0207
     43  CD        96.0070   42.7550   98.4130 C.3   103  PRO103      0.0892
     44  N         99.2190   48.2640  101.4730 N.3   106  THR106     -0.1203
     45  CA        99.4800   48.8610  100.1610 C.3   106  THR106      0.1994
     46  C        100.5120   49.9560  100.3870 C.2   106  THR106      0.2617
     47  O        100.7920   50.3060  101.5320 O.2   106  THR106     -0.2717
     48  CB        98.2240   49.4980   99.5260 C.3   106  THR106      0.1784
     49  OG1       97.8420   50.6630  100.2690 O.3   106  THR106     -0.2211
     50  CG2       97.0690   48.5080   99.5000 C.3   106  THR106      0.0376
     51  N        101.0850   50.4970   99.3180 N.am  107  ASP107     -0.1973
     52  CA       102.0740   51.5470   99.5010 C.3   107  ASP107      0.1709
     53  C        101.4340   52.9040   99.8200 C.2   107  ASP107      0.2293
     54  O        102.0900   53.9270   99.7470 O.2   107  ASP107     -0.2864
     55  CB       102.9720   51.6800   98.2700 C.3   107  ASP107      0.1436
     56  CG       104.3030   50.9330   98.4150 C.2   107  ASP107      0.3671
     57  OD1      104.7210   50.6510   99.5550 O.co2 107  ASP107     -0.2456
     58  OD2      104.9610   50.6560   97.3870 O.co2 107  ASP107     -0.2456
     59  N         91.3420   51.3880   98.1470 N.3   173  SER173     -0.1202
     60  CA        92.1980   51.1640   96.9900 C.3   173  SER173      0.2020
     61  C         91.6070   50.1690   95.9970 C.2   173  SER173      0.2618
     62  O         92.0760   50.0730   94.8680 O.2   173  SER173     -0.2717
     63  CB        93.5820   50.6860   97.4350 C.3   173  SER173      0.2103
     64  OG        93.5140   49.3840   97.9730 O.3   173  SER173     -0.2182
     65  N         90.5610   49.4560   96.4040 N.am  174  ARG174     -0.1979
     66  CA        89.9340   48.4470   95.5540 C.3   174  ARG174      0.1597
     67  C         88.4920   48.6990   95.1260 C.2   174  ARG174      0.2287
     68  O         88.0610   48.2100   94.0910 O.2   174  ARG174     -0.2864
     69  CB        89.9800   47.0850   96.2450 C.3   174  ARG174      0.0334
     70  CG        91.3490   46.4470   96.3010 C.3   174  ARG174      0.0492
     71  CD        91.2510   45.0100   96.7810 C.3   174  ARG174      0.2205
     72  NE        92.5530   44.3760   96.7350 N.pl3 174  ARG174     -0.0865
     73  CZ        93.1650   44.0140   95.6150 C.cat 174  ARG174      0.5346
     74  NH1       92.5800   44.2080   94.4480 N.pl3 174  ARG174      0.1354
     75  NH2       94.3880   43.5020   95.6530 N.pl3 174  ARG174      0.1354
     76  N         88.7670   43.5620   90.6620 N.3   191  ASP191     -0.1225
     77  CA        89.7650   44.3730   91.3670 C.3   191  ASP191      0.1805
     78  C         91.2470   44.0720   91.1550 C.2   191  ASP191      0.2598
     79  O         92.0930   44.7960   91.6830 O.2   191  ASP191     -0.2718
     80  CB        89.4670   44.4270   92.8790 C.3   191  ASP191      0.1424
     81  CG        89.6930   43.0920   93.5960 C.2   191  ASP191      0.3668
     82  OD1       90.5120   42.2670   93.1240 O.co2 191  ASP191     -0.2456
     83  OD2       89.0520   42.8830   94.6570 O.co2 191  ASP191     -0.2456
     84  N         91.5750   43.0230   90.3990 N.am  192  LEU192     -0.1966
     85  CA        92.9820   42.6940   90.1360 C.3   192  LEU192      0.1728
     86  C         93.5090   43.5960   89.0210 C.2   192  LEU192      0.2616
     87  O         94.7020   43.8090   88.8970 O.2   192  LEU192     -0.2715
     88  CB        93.1470   41.2320   89.7040 C.3   192  LEU192      0.0311
     89  CG        92.7750   40.0760   90.6240 C.3   192  LEU192      0.0022
     90  CD1       93.2130   38.7750   89.9900 C.3   192  LEU192      0.0001
     91  CD2       93.4560   40.2220   91.9430 C.3   192  LEU192      0.0001
     92  N         92.6060   44.1230   88.2070 N.am  193  ILE193     -0.1963
     93  CA        92.9850   44.9950   87.1010 C.3   193  ILE193      0.1727
     94  C         93.8520   46.1320   87.6370 C.2   193  ILE193      0.2616
     95  O         93.5730   46.6880   88.7060 O.2   193  ILE193     -0.2715
     96  CB        91.7140   45.5640   86.3910 C.3   193  ILE193      0.0290
     97  CG1       92.0960   46.2520   85.0820 C.3   193  ILE193      0.0022
     98  CG2       90.9870   46.5400   87.3020 C.3   193  ILE193      0.0023
     99  CD1       92.4280   45.2840   83.9830 C.3   193  ILE193      0.0001
    100  N         94.9010   46.4820   86.9030 N.am  194  ASN194     -0.1958
    101  CA        95.7890   47.5490   87.3460 C.3   194  ASN194      0.1819
    102  C         95.6150   48.8640   86.5840 C.2   194  ASN194      0.2621
    103  O         94.9060   48.8990   85.5780 O.2   194  ASN194     -0.2715
    104  CB        97.2350   47.0510   87.2850 C.3   194  ASN194      0.1195
    105  CG        97.5130   45.9890   88.3350 C.2   194  ASN194      0.2630
    106  OD1       97.2300   46.1990   89.5120 O.2   194  ASN194     -0.2716
    107  ND2       98.0540   44.8460   87.9190 N.am  194  ASN194     -0.0877
    108  N         96.2460   49.9310   87.0900 N.am  195  HIS195     -0.1959
    109  CA        96.1860   51.2810   86.5070 C.3   195  HIS195      0.1787
    110  C         97.3550   51.5600   85.5870 C.2   195  HIS195      0.2621
    111  O         98.4860   51.1690   85.8740 O.2   195  HIS195     -0.2715
    112  CB        96.1910   52.3490   87.6130 C.3   195  HIS195      0.0785
    113  CG        96.4050   53.7480   87.1140 C.ar  195  HIS195      0.0821
    114  ND1       95.3690   54.6350   86.9020 N.ar  195  HIS195     -0.2267
    115  CD2       97.5350   54.4040   86.7560 C.ar  195  HIS195      0.1154
    116  CE1       95.8520   55.7720   86.4320 C.ar  195  HIS195      0.1986
    117  NE2       97.1640   55.6570   86.3340 N.ar  195  HIS195     -0.2212
    118  N         97.0850   52.2400   84.4770 N.am  196  SER196     -0.1936
    119  CA        98.1400   52.5930   83.5360 C.3   196  SER196      0.2055
    120  C         97.8900   54.0300   83.0980 C.2   196  SER196      0.2642
    121  O         96.7610   54.3920   82.7770 O.2   196  SER196     -0.2714
    122  CB        98.1180   51.6560   82.3250 C.3   196  SER196      0.2130
    123  OG        99.1780   51.9480   81.4360 O.3   196  SER196     -0.2179
    124  N         98.9190   54.8670   83.0940 N.am  197  ALA197     -0.1977
    125  CA        98.6970   56.2460   82.6800 C.3   197  ALA197      0.1597
    126  C         98.4110   56.1940   81.1890 C.2   197  ALA197      0.2287
    127  O         98.0610   57.2090   80.5660 O.2   197  ALA197     -0.2864
    128  CB        99.9190   57.0930   82.9670 C.3   197  ALA197      0.0319
    129  N         92.4220   54.7260   86.5640 N.3   239  TYR239     -0.1241
    130  CA        91.7110   54.8080   87.8350 C.3   239  TYR239      0.1605
    131  C         90.9510   56.1010   88.0980 C.2   239  TYR239      0.2264
    132  O         89.9390   56.0830   88.7850 O.2   239  TYR239     -0.2867
    133  CB        92.6790   54.5410   88.9940 C.3   239  TYR239      0.0534
    134  CG        93.0310   53.0870   89.2230 C.ar  239  TYR239     -0.0201
    135  CD1       93.6620   52.6880   90.3870 C.ar  239  TYR239     -0.0009
    136  CD2       92.7380   52.1160   88.2760 C.ar  239  TYR239     -0.0009
    137  CE1       93.9930   51.3680   90.6100 C.ar  239  TYR239      0.0417
    138  CE2       93.0670   50.7840   88.4900 C.ar  239  TYR239      0.0417
    139  CZ        93.6960   50.4140   89.6610 C.ar  239  TYR239      0.1957
    140  OH        94.0260   49.0840   89.8690 O.3   239  TYR239     -0.2866
    141  N         95.8960   54.8870   96.4660 N.3   252  TYR252     -0.1227
    142  CA        96.6500   53.7510   95.9470 C.3   252  TYR252      0.1736
    143  C         98.1130   53.9700   96.3330 C.2   252  TYR252      0.2596
    144  O         98.5180   55.0900   96.6510 O.2   252  TYR252     -0.2718
    145  CB        96.4910   53.6660   94.4290 C.3   252  TYR252      0.0548
    146  CG        95.0940   54.0140   93.9650 C.ar  252  TYR252     -0.0200
    147  CD1       94.8290   55.2490   93.3730 C.ar  252  TYR252     -0.0009
    148  CD2       94.0240   53.1340   94.1690 C.ar  252  TYR252     -0.0009
    149  CE1       93.5390   55.6010   93.0010 C.ar  252  TYR252      0.0417
    150  CE2       92.7300   53.4810   93.8010 C.ar  252  TYR252      0.0417
    151  CZ        92.4960   54.7150   93.2210 C.ar  252  TYR252      0.1957
    152  OH        91.2100   55.0750   92.8840 O.3   252  TYR252     -0.2866
    153  N         98.9230   52.9260   96.3170 N.am  253  GLY253     -0.1942
    154  CA       100.3040   53.1460   96.7010 C.3   253  GLY253      0.2014
    155  C        101.1590   53.6640   95.5700 C.2   253  GLY253      0.2639
    156  O        102.2570   53.1490   95.3540 O.2   253  GLY253     -0.2714
    157  N        100.6930   54.6750   94.8410 N.am  254  PHE254     -0.1959
    158  CA       101.4960   55.1740   93.7280 C.3   254  PHE254      0.1771
    159  C        101.2490   56.6030   93.2820 C.2   254  PHE254      0.2619
    160  O        100.3740   57.2890   93.7970 O.2   254  PHE254     -0.2715
    161  CB       101.3350   54.2320   92.5190 C.3   254  PHE254      0.0574
    162  CG       100.0060   54.3560   91.7980 C.ar  254  PHE254     -0.0200
    163  CD1       99.7430   55.4370   90.9470 C.ar  254  PHE254     -0.0042
    164  CD2       99.0230   53.3840   91.9510 C.ar  254  PHE254     -0.0042
    165  CE1       98.5320   55.5450   90.2660 C.ar  254  PHE254     -0.0003
    166  CE2       97.7990   53.4830   91.2660 C.ar  254  PHE254     -0.0003
    167  CZ        97.5600   54.5660   90.4260 C.ar  254  PHE254     -0.0000
    168  N        102.0500   57.0330   92.3120 N.am  255  ILE255     -0.1963
    169  CA       101.9420   58.3520   91.7130 C.3   255  ILE255      0.1727
    170  C        102.4560   58.2900   90.2650 C.2   255  ILE255      0.2616
    171  O        103.1340   57.3480   89.8690 O.2   255  ILE255     -0.2715
    172  CB       102.7470   59.4170   92.4980 C.3   255  ILE255      0.0290
    173  CG1      104.2390   59.1160   92.4320 C.3   255  ILE255      0.0022
    174  CG2      102.2790   59.4570   93.9320 C.3   255  ILE255      0.0023
    175  CD1      105.0920   60.2820   92.8660 C.3   255  ILE255      0.0001
    176  N        102.1230   59.2930   89.4680 N.am  256  GLU256     -0.1977
    177  CA       102.5640   59.3230   88.0820 C.3   256  GLU256      0.1602
    178  C        103.5880   60.4290   87.9000 C.2   256  GLU256      0.2287
    179  O        103.5950   61.3950   88.6540 O.2   256  GLU256     -0.2864
    180  CB       101.3940   59.6060   87.1370 C.3   256  GLU256      0.0415
    181  CG       100.3150   58.5450   87.0640 C.3   256  GLU256      0.1163
    182  CD        99.2890   58.8610   85.9880 C.2   256  GLU256      0.3649
    183  OE1       99.3140   59.9940   85.4410 O.co2 256  GLU256     -0.2457
    184  OE2       98.4440   57.9830   85.6880 O.co2 256  GLU256     -0.2457
@<TRIPOS>BOND
     1   127   126    2
     2   126   125    1
     3   123   122    1
     4   122   119    1
     5   125   128    1
     6   125   124    1
     7   121   120    2
     8   124   120   am
     9   120   119    1
    10   119   118    1
    11    99    97    1
    12   118   110   am
    13    97    96    1
    14   183   182   ar
    15   103   102    2
    16   110   111    2
    17   110   109    1
    18   184   182   ar
    19   182   181    1
    20   117   116   ar
    21   117   115   ar
    22    96    93    1
    23    96    98    1
    24   116   114   ar
    25   109   108    1
    26   109   112    1
    27    16    14   ar
    28   129   130    1
    29   102   108   am
    30   102   101    1
    31   115   113   ar
    32   114   113   ar
    33   100   101    1
    34   100    94   am
    35    15    14   ar
    36   181   180    1
    37    93    94    1
    38    93    92    1
    39   113   112    1
    40   180   177    1
    41    14    13    1
    42     6     5    1
    43   104   101    1
    44   104   105    1
    45    94    95    2
    46     5     7    1
    47     5     2    1
    48   130   131    1
    49   130   133    1
    50   178   177    1
    51   178   179    2
    52   107   105   am
    53   177   176    1
    54     1     2    1
    55   131   132    2
    56    92    86   am
    57   136   138   ar
    58   136   134   ar
    59   105   106    2
    60    13    12    1
    61   138   139   ar
    62     2     3    1
    63    87    86    2
    64   133   134    1
    65    86    85    1
    66   134   135   ar
    67   176   170   am
    68     8     3   am
    69     8     9    1
    70   139   140    1
    71   139   137   ar
    72    88    85    1
    73    88    89    1
    74    12     9    1
    75    23    24    2
    76    23    22    1
    77     3     4    2
    78   171   170    2
    79    90    89    1
    80    85    84    1
    81   170   169    1
    82   165   167   ar
    83   165   163   ar
    84   135   137   ar
    85    84    78   am
    86   167   166   ar
    87     9    10    1
    88    89    91    1
    89    76    77    1
    90    22    25    1
    91    22    21    1
    92    20    19    2
    93   163   162   ar
    94    78    77    1
    95    78    79    2
    96   166   164   ar
    97    10    17   am
    98    10    11    2
    99    77    80    1
   100    19    21   am
   101    19    18    1
   102    25    26    1
   103    17    18    1
   104   169   168    1
   105   169   172    1
   106   162   164   ar
   107   162   161    1
   108    28    26    1
   109   168   159   am
   110   173   172    1
   111   173   175    1
   112   172   174    1
   113   161   158    1
   114    26    27    1
   115    80    81    1
   116   152   151    1
   117   149   151   ar
   118   149   147   ar
   119    82    81   ar
   120   151   150   ar
   121   159   158    1
   122   159   160    2
   123   147   146   ar
   124    81    83   ar
   125   158   157    1
   126   150   148   ar
   127   146   148   ar
   128   146   145    1
   129    68    67    2
   130   145   142    1
   131    74    73    1
   132   157   155   am
   133    62    61    2
   134    67    66    1
   135    35    33    1
   136   156   155    2
   137    66    69    1
   138    66    65    1
   139   155   154    1
   140    73    75    1
   141    73    72    2
   142    36    34    1
   143    34    33    1
   144   142   143    1
   145   142   141    1
   146    61    65   am
   147    61    60    1
   148    69    70    1
   149    70    71    1
   150   153   143   am
   151   153   154    1
   152    33    30    1
   153   143   144    2
   154    72    71    1
   155    60    63    1
   156    60    59    1
   157    32    31    2
   158    58    56   ar
   159    63    64    1
   160    30    31    1
   161    30    29    1
   162    42    43    1
   163    42    41    1
   164    55    56    1
   165    55    52    1
   166    43    37    1
   167    56    57   ar
   168    41    38    1
   169    51    52    1
   170    51    46   am
   171    50    48    1
   172    52    53    1
   173    48    45    1
   174    48    49    1
   175    37    38    1
   176    54    53    2
   177    45    46    1
   178    45    44    1
   179    38    39    1
   180    46    47    2
   181    39    40    2
