@<TRIPOS>MOLECULE
tmp/2h2eB01.pdb
 134 131 0 0 0
SMALL
GASTEIGER

@<TRIPOS>ATOM
      1  N         91.3420   51.3880   98.1470 N.3   173  SER173     -0.1202
      2  CA        92.1980   51.1640   96.9900 C.3   173  SER173      0.2020
      3  C         91.6070   50.1690   95.9970 C.2   173  SER173      0.2619
      4  O         92.0760   50.0730   94.8680 O.2   173  SER173     -0.2717
      5  CB        93.5820   50.6860   97.4350 C.3   173  SER173      0.2103
      6  OG        93.5140   49.3840   97.9730 O.3   173  SER173     -0.2182
      7  N         90.5610   49.4560   96.4040 N.am  174  ARG174     -0.1965
      8  CA        89.9340   48.4470   95.5540 C.3   174  ARG174      0.1729
      9  C         88.4920   48.6990   95.1260 C.2   174  ARG174      0.2616
     10  O         88.0610   48.2100   94.0910 O.2   174  ARG174     -0.2715
     11  CB        89.9800   47.0850   96.2450 C.3   174  ARG174      0.0348
     12  CG        91.3490   46.4470   96.3010 C.3   174  ARG174      0.0492
     13  CD        91.2510   45.0100   96.7810 C.3   174  ARG174      0.2205
     14  NE        92.5530   44.3760   96.7350 N.pl3 174  ARG174     -0.0865
     15  CZ        93.1650   44.0140   95.6150 C.cat 174  ARG174      0.5346
     16  NH1       92.5800   44.2080   94.4480 N.pl3 174  ARG174      0.1354
     17  NH2       94.3880   43.5020   95.6530 N.pl3 174  ARG174      0.1354
     18  N         87.7320   49.4450   95.9130 N.am  175  ALA175     -0.1963
     19  CA        86.3390   49.6900   95.5660 C.3   175  ALA175      0.1728
     20  C         86.1230   50.4430   94.2620 C.2   175  ALA175      0.2616
     21  O         86.8330   51.4000   93.9440 O.2   175  ALA175     -0.2715
     22  CB        85.6490   50.4190   96.6920 C.3   175  ALA175      0.0334
     23  N         85.1230   49.9860   93.5150 N.am  176  PHE176     -0.1960
     24  CA        84.7280   50.5970   92.2540 C.3   176  PHE176      0.1771
     25  C         83.5720   51.5620   92.5320 C.2   176  PHE176      0.2620
     26  O         82.5510   51.1560   93.0870 O.2   176  PHE176     -0.2715
     27  CB        84.2350   49.5300   91.2730 C.3   176  PHE176      0.0574
     28  CG        85.3280   48.7160   90.6510 C.ar  176  PHE176     -0.0200
     29  CD1       85.6430   47.4540   91.1380 C.ar  176  PHE176     -0.0042
     30  CD2       86.0350   49.2060   89.5620 C.ar  176  PHE176     -0.0042
     31  CE1       86.6500   46.6910   90.5430 C.ar  176  PHE176     -0.0003
     32  CE2       87.0380   48.4510   88.9670 C.ar  176  PHE176     -0.0003
     33  CZ        87.3440   47.1930   89.4580 C.ar  176  PHE176     -0.0000
     34  N         83.7230   52.8280   92.1500 N.am  177  SER177     -0.1936
     35  CA        82.6600   53.8150   92.3610 C.3   177  SER177      0.2055
     36  C         81.7420   53.8610   91.1420 C.2   177  SER177      0.2642
     37  O         80.8170   53.0520   91.0120 O.2   177  SER177     -0.2714
     38  CB        83.2550   55.2040   92.5840 C.3   177  SER177      0.2130
     39  OG        84.3220   55.1380   93.5030 O.3   177  SER177     -0.2179
     40  N         82.0250   54.8210   90.2630 N.am  178  ARG178     -0.1977
     41  CA        81.2890   55.0560   89.0190 C.3   178  ARG178      0.1597
     42  C         80.2950   53.9600   88.6290 C.2   178  ARG178      0.2287
     43  O         80.6350   53.0400   87.8850 O.2   178  ARG178     -0.2864
     44  CB        82.2800   55.2510   87.8710 C.3   178  ARG178      0.0334
     45  CG        83.3650   56.2780   88.1350 C.3   178  ARG178      0.0492
     46  CD        84.5780   55.9640   87.2870 C.3   178  ARG178      0.2205
     47  NE        85.6450   56.9320   87.4760 N.pl3 178  ARG178     -0.0865
     48  CZ        86.8980   56.7550   87.0680 C.cat 178  ARG178      0.5346
     49  NH1       87.2530   55.6390   86.4430 N.pl3 178  ARG178      0.1354
     50  NH2       87.8010   57.6990   87.2940 N.pl3 178  ARG178      0.1354
     51  N         88.7670   43.5620   90.6620 N.3   191  ASP191     -0.1239
     52  CA        89.7650   44.3730   91.3670 C.3   191  ASP191      0.1674
     53  C         91.2470   44.0720   91.1550 C.2   191  ASP191      0.2266
     54  O         92.0930   44.7960   91.6830 O.2   191  ASP191     -0.2867
     55  CB        89.4670   44.4270   92.8790 C.3   191  ASP191      0.1410
     56  CG        89.6930   43.0920   93.5960 C.2   191  ASP191      0.3668
     57  OD1       90.5120   42.2670   93.1240 O.co2 191  ASP191     -0.2456
     58  OD2       89.0520   42.8830   94.6570 O.co2 191  ASP191     -0.2456
     59  N         92.6060   44.1230   88.2070 N.3   193  ILE193     -0.1245
     60  CA        92.9850   44.9950   87.1010 C.3   193  ILE193      0.1561
     61  C         93.8520   46.1320   87.6370 C.2   193  ILE193      0.2260
     62  O         93.5730   46.6880   88.7060 O.2   193  ILE193     -0.2867
     63  CB        91.7140   45.5640   86.3910 C.3   193  ILE193      0.0252
     64  CG1       92.0960   46.2520   85.0820 C.3   193  ILE193      0.0019
     65  CG2       90.9870   46.5400   87.3020 C.3   193  ILE193      0.0019
     66  CD1       92.4280   45.2840   83.9830 C.3   193  ILE193      0.0001
     67  N         84.8390   51.5690   81.3910 N.3   204  HIS204     -0.1241
     68  CA        85.3310   50.2010   81.3650 C.3   204  HIS204      0.1621
     69  C         84.4700   49.2610   82.1750 C.2   204  HIS204      0.2264
     70  O         84.7500   48.0680   82.2540 O.2   204  HIS204     -0.2867
     71  CB        86.7510   50.1550   81.9110 C.3   204  HIS204      0.0745
     72  CG        86.8990   50.8210   83.2430 C.ar  204  HIS204      0.0817
     73  ND1       87.3990   52.0980   83.3850 N.ar  204  HIS204     -0.2268
     74  CD2       86.5770   50.4020   84.4900 C.ar  204  HIS204      0.1154
     75  CE1       87.3790   52.4370   84.6610 C.ar  204  HIS204      0.1986
     76  NE2       86.8830   51.4260   85.3530 N.ar  204  HIS204     -0.2212
     77  N         93.6080   49.6680   83.0510 N.3   237  ILE237     -0.1231
     78  CA        92.4700   50.5880   82.9770 C.3   237  ILE237      0.1692
     79  C         93.0050   51.8550   83.6230 C.2   237  ILE237      0.2592
     80  O         94.1310   51.8540   84.1350 O.2   237  ILE237     -0.2718
     81  CB        91.2230   50.1230   83.7680 C.3   237  ILE237      0.0266
     82  CG1       91.4380   50.3270   85.2660 C.3   237  ILE237      0.0019
     83  CG2       90.9120   48.6910   83.4390 C.3   237  ILE237      0.0020
     84  CD1       90.2930   49.8630   86.1300 C.3   237  ILE237      0.0001
     85  N         92.2300   52.9350   83.5790 N.am  238  GLN238     -0.1966
     86  CA        92.6290   54.1960   84.2030 C.3   238  GLN238      0.1733
     87  C         91.8030   54.2930   85.4700 C.2   238  GLN238      0.2616
     88  O         90.6140   53.9760   85.4590 O.2   238  GLN238     -0.2715
     89  CB        92.3140   55.3760   83.2920 C.3   238  GLN238      0.0408
     90  CG        92.0540   56.6960   84.0210 C.3   238  GLN238      0.0908
     91  CD        93.3130   57.3490   84.5230 C.2   238  GLN238      0.2608
     92  OE1       94.2520   57.5730   83.7610 O.2   238  GLN238     -0.2717
     93  NE2       93.3450   57.6660   85.8110 N.am  238  GLN238     -0.0878
     94  N         92.4220   54.7260   86.5640 N.am  239  TYR239     -0.1960
     95  CA        91.7110   54.8080   87.8350 C.3   239  TYR239      0.1771
     96  C         90.9510   56.1010   88.0980 C.2   239  TYR239      0.2619
     97  O         89.9390   56.0830   88.7850 O.2   239  TYR239     -0.2715
     98  CB        92.6790   54.5410   88.9940 C.3   239  TYR239      0.0574
     99  CG        93.0310   53.0870   89.2230 C.ar  239  TYR239     -0.0198
    100  CD1       93.6620   52.6880   90.3870 C.ar  239  TYR239     -0.0009
    101  CD2       92.7380   52.1160   88.2760 C.ar  239  TYR239     -0.0009
    102  CE1       93.9930   51.3680   90.6100 C.ar  239  TYR239      0.0417
    103  CE2       93.0670   50.7840   88.4900 C.ar  239  TYR239      0.0417
    104  CZ        93.6960   50.4140   89.6610 C.ar  239  TYR239      0.1957
    105  OH        94.0260   49.0840   89.8690 O.3   239  TYR239     -0.2866
    106  N         91.4350   57.2210   87.5730 N.am  240  ASP240     -0.1971
    107  CA        90.7670   58.5100   87.7760 C.3   240  ASP240      0.1709
    108  C         91.6270   59.6310   87.2410 C.2   240  ASP240      0.2293
    109  O         92.5860   60.0490   87.8830 O.2   240  ASP240     -0.2864
    110  CB        90.5030   58.7680   89.2550 C.3   240  ASP240      0.1436
    111  CG        89.5450   59.9160   89.4790 C.2   240  ASP240      0.3671
    112  OD1       89.6980   60.9640   88.8050 O.co2 240  ASP240     -0.2456
    113  OD2       88.6340   59.7720   90.3300 O.co2 240  ASP240     -0.2456
    114  N         92.0290   62.7100   89.9070 N.3   243  LYS243     -0.1245
    115  CA        92.8120   62.6770   91.1290 C.3   243  LYS243      0.1561
    116  C         94.1440   63.3480   90.9070 C.2   243  LYS243      0.2260
    117  O         94.6250   63.4290   89.7810 O.2   243  LYS243     -0.2867
    118  CB        93.0760   61.2470   91.5700 C.3   243  LYS243      0.0271
    119  CG        91.8380   60.3990   91.7180 C.3   243  LYS243      0.0035
    120  CD        91.3650   60.2860   93.1410 C.3   243  LYS243      0.0206
    121  CE        90.6760   58.9310   93.3270 C.3   243  LYS243      0.1093
    122  NZ        91.5820   57.8050   92.9570 N.3   243  LYS243     -0.1314
    123  N         95.8960   54.8870   96.4660 N.3   252  TYR252     -0.1241
    124  CA        96.6500   53.7510   95.9470 C.3   252  TYR252      0.1605
    125  C         98.1130   53.9700   96.3330 C.2   252  TYR252      0.2264
    126  O         98.5180   55.0900   96.6510 O.2   252  TYR252     -0.2867
    127  CB        96.4910   53.6660   94.4290 C.3   252  TYR252      0.0534
    128  CG        95.0940   54.0140   93.9650 C.ar  252  TYR252     -0.0201
    129  CD1       94.8290   55.2490   93.3730 C.ar  252  TYR252     -0.0009
    130  CD2       94.0240   53.1340   94.1690 C.ar  252  TYR252     -0.0009
    131  CE1       93.5390   55.6010   93.0010 C.ar  252  TYR252      0.0417
    132  CE2       92.7300   53.4810   93.8010 C.ar  252  TYR252      0.0417
    133  CZ        92.4960   54.7150   93.2210 C.ar  252  TYR252      0.1957
    134  OH        91.2100   55.0750   92.8840 O.3   252  TYR252     -0.2866
@<TRIPOS>BOND
     1    68    67    1
     2    68    71    1
     3    68    69    1
     4    71    72    1
     5    69    70    2
     6    78    77    1
     7    78    79    1
     8    78    81    1
     9    72    73   ar
    10    72    74   ar
    11    89    90    1
    12    89    86    1
    13    73    75   ar
    14    83    81    1
    15    85    79   am
    16    85    86    1
    17    79    80    2
    18    92    91    2
    19    81    82    1
    20    66    64    1
    21    90    91    1
    22    86    87    1
    23    74    76   ar
    24    91    93   am
    25    75    76   ar
    26    64    63    1
    27    82    84    1
    28    88    87    2
    29    87    94   am
    30    63    60    1
    31    63    65    1
    32    49    48    1
    33    94    95    1
    34    48    50    1
    35    48    47    2
    36    60    61    1
    37    60    59    1
    38   108   107    1
    39   108   109    2
    40    46    47    1
    41    46    45    1
    42   106   107    1
    43   106    96   am
    44    61    62    2
    45   107   110    1
    46    95    96    1
    47    95    98    1
    48    44    45    1
    49    44    41    1
    50    43    42    2
    51    96    97    2
    52   101   103   ar
    53   101    99   ar
    54   103   104   ar
    55    42    41    1
    56   112   111   ar
    57    32    33   ar
    58    32    30   ar
    59    98    99    1
    60    41    40    1
    61    99   100   ar
    62   110   111    1
    63    33    31   ar
    64   111   113   ar
    65    30    28   ar
    66   104   105    1
    67   104   102   ar
    68   117   116    2
    69   114   115    1
    70    40    36   am
    71   100   102   ar
    72    31    29   ar
    73    28    29   ar
    74    28    27    1
    75    51    52    1
    76   116   115    1
    77    37    36    2
    78   115   118    1
    79    36    35    1
    80    53    52    1
    81    53    54    2
    82    27    24    1
    83    52    55    1
    84   118   119    1
    85   119   120    1
    86    34    35    1
    87    34    25   am
    88    24    25    1
    89    24    23    1
    90    35    38    1
    91    25    26    2
    92    38    39    1
    93    55    56    1
    94   134   133    1
    95   122   121    1
    96   131   133   ar
    97   131   129   ar
    98    57    56   ar
    99   120   121    1
   100   133   132   ar
   101   129   128   ar
   102    23    20   am
   103    56    58   ar
   104   132   130   ar
   105    21    20    2
   106   128   130   ar
   107   128   127    1
   108    10     9    2
   109    20    19    1
   110   127   124    1
   111    16    15    1
   112     4     3    2
   113     9     8    1
   114     9    18   am
   115     8    11    1
   116     8     7    1
   117    19    18    1
   118    19    22    1
   119    15    17    1
   120    15    14    2
   121   124   125    1
   122   124   123    1
   123     3     7   am
   124     3     2    1
   125    11    12    1
   126    12    13    1
   127   125   126    2
   128    14    13    1
   129     2     5    1
   130     2     1    1
   131     5     6    1
