@<TRIPOS>MOLECULE
tmp/2h2jA00.pdb
 147 145 0 0 0
SMALL
GASTEIGER

@<TRIPOS>ATOM
      1  N         77.1180  131.1550   48.0270 N.3    31  GLU31      -0.1231
      2  CA        76.2540  130.6760   49.0950 C.3    31  GLU31       0.1699
      3  C         74.7410  130.6970   48.7900 C.2    31  GLU31       0.2593
      4  O         73.9130  130.7690   49.7100 O.2    31  GLU31      -0.2718
      5  CB        76.5460  131.4450   50.3940 C.3    31  GLU31       0.0402
      6  CG        76.6850  132.9550   50.2360 C.3    31  GLU31       0.1161
      7  CD        78.1180  133.4120   49.9490 C.2    31  GLU31       0.3649
      8  OE1       78.9070  133.5550   50.9110 O.co2  31  GLU31      -0.2457
      9  OE2       78.4490  133.6260   48.7550 O.co2  31  GLU31      -0.2457
     10  N         74.3810  130.6110   47.5080 N.am   32  GLY32      -0.1942
     11  CA        72.9740  130.5970   47.1160 C.3    32  GLY32       0.2014
     12  C         72.5160  131.8670   46.4160 C.2    32  GLY32       0.2638
     13  O         72.8100  132.0890   45.2420 O.2    32  GLY32      -0.2714
     14  N         71.7580  132.6830   47.1350 N.am   33  LEU33      -0.1977
     15  CA        71.2890  133.9690   46.6340 C.3    33  LEU33       0.1596
     16  C         71.6810  134.9210   47.7470 C.2    33  LEU33       0.2287
     17  O         71.7010  134.5340   48.9140 O.2    33  LEU33      -0.2864
     18  CB        69.7680  133.9920   46.4500 C.3    33  LEU33       0.0297
     19  CG        69.1820  133.3420   45.1940 C.3    33  LEU33       0.0022
     20  CD1       67.6910  133.0980   45.4050 C.3    33  LEU33       0.0001
     21  CD2       69.4380  134.2300   43.9740 C.3    33  LEU33       0.0001
     22  N         64.6430  127.8200   48.3330 N.3   102  PRO102     -0.2116
     23  CA        65.3760  126.6120   47.9330 C.3   102  PRO102      0.1372
     24  C         64.6110  125.4090   48.4560 C.2   102  PRO102      0.2244
     25  O         64.1330  125.4140   49.5990 O.2   102  PRO102     -0.2868
     26  CB        66.7230  126.7640   48.6440 C.3   102  PRO102      0.0268
     27  CG        66.8670  128.2480   48.8130 C.3   102  PRO102      0.0207
     28  CD        65.4680  128.6560   49.2240 C.3   102  PRO102      0.0892
     29  N         68.5690  122.4100   51.6510 N.3   105  THR105     -0.1203
     30  CA        69.7870  123.0760   52.1190 C.3   105  THR105      0.1994
     31  C         70.7450  121.9190   52.4130 C.2   105  THR105      0.2617
     32  O         70.4160  120.7560   52.1580 O.2   105  THR105     -0.2717
     33  CB        69.5960  123.8710   53.4250 C.3   105  THR105      0.1784
     34  OG1       69.3740  122.9590   54.5050 O.3   105  THR105     -0.2211
     35  CG2       68.4290  124.8400   53.3070 C.3   105  THR105      0.0376
     36  N         71.9230  122.2140   52.9450 N.am  106  ASP106     -0.1973
     37  CA        72.8420  121.1370   53.2370 C.3   106  ASP106      0.1709
     38  C         72.7340  120.6590   54.6640 C.2   106  ASP106      0.2293
     39  O         73.5760  119.9020   55.1420 O.2   106  ASP106     -0.2864
     40  CB        74.2690  121.5330   52.8890 C.3   106  ASP106      0.1436
     41  CG        74.5530  121.3610   51.4160 C.2   106  ASP106      0.3671
     42  OD1       73.9560  120.4350   50.8280 O.co2 106  ASP106     -0.2456
     43  OD2       75.3620  122.1320   50.8480 O.co2 106  ASP106     -0.2456
     44  N         66.5770  127.5980   59.2960 N.3   172  SER172     -0.1202
     45  CA        67.7380  128.1750   58.6260 C.3   172  SER172      0.2020
     46  C         67.4650  129.5930   58.1520 C.2   172  SER172      0.2618
     47  O         68.3760  130.2800   57.6830 O.2   172  SER172     -0.2717
     48  CB        68.1640  127.3030   57.4350 C.3   172  SER172      0.2103
     49  OG        67.2150  127.3360   56.3830 O.3   172  SER172     -0.2182
     50  N         66.2190  130.0390   58.3030 N.am  173  ARG173     -0.1979
     51  CA        65.8310  131.3670   57.8440 C.3   173  ARG173      0.1597
     52  C         65.2940  132.3510   58.8760 C.2   173  ARG173      0.2287
     53  O         65.6580  133.5270   58.8610 O.2   173  ARG173     -0.2864
     54  CB        64.8170  131.2190   56.7160 C.3   173  ARG173      0.0334
     55  CG        65.4350  130.6520   55.4670 C.3   173  ARG173      0.0492
     56  CD        64.4140  130.3100   54.4250 C.3   173  ARG173      0.2205
     57  NE        65.0220  130.3180   53.1020 N.pl3 173  ARG173     -0.0865
     58  CZ        65.3950  131.4240   52.4660 C.cat 173  ARG173      0.5346
     59  NH1       65.2160  132.6040   53.0350 N.pl3 173  ARG173      0.1354
     60  NH2       65.9540  131.3520   51.2650 N.pl3 173  ARG173      0.1354
     61  N         65.5120  137.4440   54.4050 N.3   187  ASP187     -0.1225
     62  CA        65.7300  136.0070   54.2950 C.3   187  ASP187      0.1805
     63  C         66.8230  135.6830   53.2820 C.2   187  ASP187      0.2598
     64  O         67.1430  134.5190   53.0710 O.2   187  ASP187     -0.2718
     65  CB        64.4330  135.3170   53.8520 C.3   187  ASP187      0.1424
     66  CG        63.8160  134.4670   54.9440 C.2   187  ASP187      0.3668
     67  OD1       63.4120  135.0180   55.9930 O.co2 187  ASP187     -0.2456
     68  OD2       63.7310  133.2380   54.7520 O.co2 187  ASP187     -0.2456
     69  N         67.3980  136.7040   52.6610 N.am  188  LEU188     -0.1966
     70  CA        68.4170  136.4830   51.6430 C.3   188  LEU188      0.1728
     71  C         69.8510  136.7830   52.0580 C.2   188  LEU188      0.2616
     72  O         70.7920  136.2890   51.4390 O.2   188  LEU188     -0.2715
     73  CB        68.0710  137.2950   50.4000 C.3   188  LEU188      0.0311
     74  CG        66.7250  136.9190   49.7980 C.3   188  LEU188      0.0022
     75  CD1       66.3920  137.8620   48.6660 C.3   188  LEU188      0.0001
     76  CD2       66.7790  135.4810   49.3050 C.3   188  LEU188      0.0001
     77  N         70.0200  137.5990   53.0900 N.am  189  ILE189     -0.1963
     78  CA        71.3520  137.9430   53.5560 C.3   189  ILE189      0.1727
     79  C         72.0540  136.7190   54.1660 C.2   189  ILE189      0.2616
     80  O         71.5070  136.0340   55.0420 O.2   189  ILE189     -0.2715
     81  CB        71.2830  139.0680   54.5900 C.3   189  ILE189      0.0290
     82  CG1       72.6870  139.5350   54.9500 C.3   189  ILE189      0.0022
     83  CG2       70.5690  138.5830   55.8310 C.3   189  ILE189      0.0023
     84  CD1       72.7040  140.7640   55.8330 C.3   189  ILE189      0.0001
     85  N         73.2670  136.4460   53.6930 N.am  190  ASN190     -0.1958
     86  CA        74.0280  135.3020   54.1730 C.3   190  ASN190      0.1819
     87  C         74.9390  135.5860   55.3740 C.2   190  ASN190      0.2621
     88  O         75.0460  136.7270   55.8550 O.2   190  ASN190     -0.2715
     89  CB        74.8540  134.7270   53.0290 C.3   190  ASN190      0.1195
     90  CG        74.0020  134.1080   51.9680 C.2   190  ASN190      0.2630
     91  OD1       73.2580  133.1800   52.2310 O.2   190  ASN190     -0.2716
     92  ND2       74.1040  134.6180   50.7560 N.am  190  ASN190     -0.0877
     93  N         75.5930  134.5230   55.8460 N.am  191  HIS191     -0.1959
     94  CA        76.5020  134.5840   56.9920 C.3   191  HIS191      0.1787
     95  C         77.9670  134.7320   56.5640 C.2   191  HIS191      0.2620
     96  O         78.3790  134.2200   55.5200 O.2   191  HIS191     -0.2715
     97  CB        76.3270  133.3080   57.8300 C.3   191  HIS191      0.0785
     98  CG        77.3690  133.1120   58.8880 C.ar  191  HIS191      0.0821
     99  ND1       77.2130  133.5590   60.1850 N.ar  191  HIS191     -0.2267
    100  CD2       78.5810  132.5050   58.8430 C.ar  191  HIS191      0.1154
    101  CE1       78.2830  133.2360   60.8930 C.ar  191  HIS191      0.1986
    102  NE2       79.1290  132.5960   60.1010 N.ar  191  HIS191     -0.2212
    103  N         78.7370  135.4640   57.3590 N.am  192  SER192     -0.1950
    104  CA        80.1600  135.6270   57.0980 C.3   192  SER192      0.1924
    105  C         80.9020  135.6260   58.4210 C.2   192  SER192      0.2314
    106  O         80.3400  136.0280   59.4480 O.2   192  SER192     -0.2863
    107  CB        80.4550  136.9270   56.3830 C.3   192  SER192      0.2116
    108  OG        81.8490  137.1480   56.3800 O.3   192  SER192     -0.2180
    109  N         75.3500  135.0040   62.0510 N.3   224  TYR224     -0.1241
    110  CA        74.1890  134.2720   62.5290 C.3   224  TYR224      0.1605
    111  C         74.2390  133.9980   64.0310 C.2   224  TYR224      0.2264
    112  O         73.2510  134.2060   64.7290 O.2   224  TYR224     -0.2867
    113  CB        74.0270  132.9590   61.7630 C.3   224  TYR224      0.0534
    114  CG        73.5330  133.1300   60.3410 C.ar  224  TYR224     -0.0201
    115  CD1       73.2090  132.0160   59.5570 C.ar  224  TYR224     -0.0009
    116  CD2       73.3840  134.4020   59.7740 C.ar  224  TYR224     -0.0009
    117  CE1       72.7440  132.1600   58.2420 C.ar  224  TYR224      0.0417
    118  CE2       72.9200  134.5590   58.4550 C.ar  224  TYR224      0.0417
    119  CZ        72.6020  133.4320   57.7010 C.ar  224  TYR224      0.1957
    120  OH        72.1370  133.5760   56.4130 O.3   224  TYR224     -0.2866
    121  N         71.8750  125.3620   59.6950 N.3   237  TYR237     -0.1227
    122  CA        72.0580  125.8430   58.3270 C.3   237  TYR237      0.1736
    123  C         72.8800  124.7390   57.6970 C.2   237  TYR237      0.2596
    124  O         73.2120  123.7610   58.3690 O.2   237  TYR237     -0.2718
    125  CB        72.8290  127.1640   58.3180 C.3   237  TYR237      0.0548
    126  CG        72.4200  128.0960   59.4310 C.ar  237  TYR237     -0.0200
    127  CD1       73.2100  128.2390   60.5710 C.ar  237  TYR237     -0.0009
    128  CD2       71.2100  128.7830   59.3820 C.ar  237  TYR237     -0.0009
    129  CE1       72.8040  129.0380   61.6410 C.ar  237  TYR237      0.0417
    130  CE2       70.7940  129.5850   60.4440 C.ar  237  TYR237      0.0417
    131  CZ        71.5960  129.7040   61.5700 C.ar  237  TYR237      0.1957
    132  OH        71.1750  130.4790   62.6350 O.3   237  TYR237     -0.2866
    133  N         73.2200  124.8590   56.4270 N.am  238  GLY238     -0.1942
    134  CA        74.0000  123.7830   55.8400 C.3   238  GLY238      0.2014
    135  C         75.4790  124.0820   55.7210 C.2   238  GLY238      0.2638
    136  O         76.0790  123.7600   54.6910 O.2   238  GLY238     -0.2714
    137  N         76.0900  124.6700   56.7510 N.am  239  PHE239     -0.1973
    138  CA        77.5150  124.9930   56.6510 C.3   239  PHE239      0.1639
    139  C         78.2700  124.9920   57.9760 C.2   239  PHE239      0.2290
    140  O         77.6840  124.8640   59.0460 O.2   239  PHE239     -0.2864
    141  CB        77.6860  126.3580   55.9680 C.3   239  PHE239      0.0560
    142  CG        77.2720  127.5390   56.8270 C.ar  239  PHE239     -0.0200
    143  CD1       78.1450  128.0650   57.7760 C.ar  239  PHE239     -0.0042
    144  CD2       76.0190  128.1320   56.6710 C.ar  239  PHE239     -0.0042
    145  CE1       77.7830  129.1680   58.5610 C.ar  239  PHE239     -0.0003
    146  CE2       75.6390  129.2350   57.4470 C.ar  239  PHE239     -0.0003
    147  CZ        76.5270  129.7570   58.3980 C.ar  239  PHE239     -0.0000
@<TRIPOS>BOND
     1    21    19    1
     2    19    20    1
     3    19    18    1
     4    13    12    2
     5    12    11    1
     6    12    14   am
     7    18    15    1
     8    15    14    1
     9    15    16    1
    10    11    10    1
    11    10     3   am
    12    16    17    2
    13    23    22    1
    14    23    24    1
    15    23    26    1
    16     1     2    1
    17    22    28    1
    18    24    25    2
    19    26    27    1
    20    75    74    1
    21     9     7   ar
    22     3     2    1
    23     3     4    2
    24    27    28    1
    25     2     5    1
    26    76    74    1
    27    74    73    1
    28     7     6    1
    29     7     8   ar
    30     6     5    1
    31    73    70    1
    32    92    90   am
    33    42    41   ar
    34    43    41   ar
    35    60    58    1
    36    41    40    1
    37    72    71    2
    38    70    71    1
    39    70    69    1
    40    29    30    1
    41    90    91    2
    42    90    89    1
    43    71    77   am
    44    30    31    1
    45    30    33    1
    46    32    31    2
    47    31    36   am
    48    58    59    1
    49    58    57    2
    50    69    63   am
    51    40    37    1
    52    36    37    1
    53    89    86    1
    54    64    63    2
    55    77    78    1
    56    57    56    1
    57    37    38    1
    58    63    62    1
    59    35    33    1
    60    33    34    1
    61    78    79    1
    62    78    81    1
    63    85    79   am
    64    85    86    1
    65    65    62    1
    66    65    66    1
    67    79    80    2
    68    86    87    1
    69    62    61    1
    70    56    55    1
    71    81    82    1
    72    81    83    1
    73    38    39    2
    74   136   135    2
    75    68    66   ar
    76    66    67   ar
    77    82    84    1
    78    87    93   am
    79    87    88    2
    80    55    54    1
    81    96    95    2
    82   135   134    1
    83   135   137   am
    84   134   133    1
    85    93    94    1
    86   141   138    1
    87   141   142    1
    88   108   107    1
    89   107   104    1
    90    49    48    1
    91   120   119    1
    92   133   123   am
    93    95    94    1
    94    95   103   am
    95   138   137    1
    96   138   139    1
    97   144   142   ar
    98   144   146   ar
    99    54    51    1
   100   142   143   ar
   101    94    97    1
   102   104   103    1
   103   104   105    1
   104    48    45    1
   105   146   147   ar
   106    47    46    2
   107   123   122    1
   108   123   124    2
   109   119   117   ar
   110   119   118   ar
   111   143   145   ar
   112    97    98    1
   113    51    50    1
   114    51    52    1
   115   139   140    2
   116    46    50   am
   117    46    45    1
   118   117   115   ar
   119   125   122    1
   120   125   126    1
   121   122   121    1
   122   147   145   ar
   123   105   106    2
   124   118   116   ar
   125    45    44    1
   126   100    98   ar
   127   100   102   ar
   128    53    52    2
   129    98    99   ar
   130   128   126   ar
   131   128   130   ar
   132   126   127   ar
   133   115   114   ar
   134   116   114   ar
   135   102   101   ar
   136    99   101   ar
   137   114   113    1
   138   130   131   ar
   139   127   129   ar
   140   131   129   ar
   141   131   132    1
   142   113   110    1
   143   109   110    1
   144   110   111    1
   145   111   112    2
