@<TRIPOS>MOLECULE
tmp/2h2jA01.pdb
 139 136 0 0 0
SMALL
GASTEIGER

@<TRIPOS>ATOM
      1  N         66.5770  127.5980   59.2960 N.3   172  SER172     -0.1202
      2  CA        67.7380  128.1750   58.6260 C.3   172  SER172      0.2020
      3  C         67.4650  129.5930   58.1520 C.2   172  SER172      0.2619
      4  O         68.3760  130.2800   57.6830 O.2   172  SER172     -0.2717
      5  CB        68.1640  127.3030   57.4350 C.3   172  SER172      0.2103
      6  OG        67.2150  127.3360   56.3830 O.3   172  SER172     -0.2182
      7  N         66.2190  130.0390   58.3030 N.am  173  ARG173     -0.1965
      8  CA        65.8310  131.3670   57.8440 C.3   173  ARG173      0.1729
      9  C         65.2940  132.3510   58.8760 C.2   173  ARG173      0.2616
     10  O         65.6580  133.5270   58.8610 O.2   173  ARG173     -0.2715
     11  CB        64.8170  131.2190   56.7160 C.3   173  ARG173      0.0348
     12  CG        65.4350  130.6520   55.4670 C.3   173  ARG173      0.0492
     13  CD        64.4140  130.3100   54.4250 C.3   173  ARG173      0.2205
     14  NE        65.0220  130.3180   53.1020 N.pl3 173  ARG173     -0.0865
     15  CZ        65.3950  131.4240   52.4660 C.cat 173  ARG173      0.5346
     16  NH1       65.2160  132.6040   53.0350 N.pl3 173  ARG173      0.1354
     17  NH2       65.9540  131.3520   51.2650 N.pl3 173  ARG173      0.1354
     18  N         64.4260  131.8760   59.7610 N.am  174  ALA174     -0.1963
     19  CA        63.8220  132.7280   60.7800 C.3   174  ALA174      0.1728
     20  C         64.8370  133.4360   61.6690 C.2   174  ALA174      0.2616
     21  O         65.9910  133.0250   61.7580 O.2   174  ALA174     -0.2715
     22  CB        62.8760  131.9050   61.6360 C.3   174  ALA174      0.0334
     23  N         64.3950  134.5050   62.3270 N.am  175  PHE175     -0.1960
     24  CA        65.2550  135.2670   63.2270 C.3   175  PHE175      0.1771
     25  C         64.8260  135.0290   64.6650 C.2   175  PHE175      0.2620
     26  O         63.6770  135.2730   65.0330 O.2   175  PHE175     -0.2715
     27  CB        65.1840  136.7610   62.9170 C.3   175  PHE175      0.0574
     28  CG        65.6310  137.1160   61.5270 C.ar  175  PHE175     -0.0200
     29  CD1       64.8490  136.7860   60.4210 C.ar  175  PHE175     -0.0042
     30  CD2       66.8340  137.7850   61.3210 C.ar  175  PHE175     -0.0042
     31  CE1       65.2610  137.1190   59.1250 C.ar  175  PHE175     -0.0003
     32  CE2       67.2530  138.1200   60.0300 C.ar  175  PHE175     -0.0003
     33  CZ        66.4630  137.7860   58.9320 C.ar  175  PHE175     -0.0000
     34  N         65.7640  134.5560   65.4740 N.am  176  SER176     -0.1936
     35  CA        65.4950  134.2600   66.8750 C.3   176  SER176      0.2055
     36  C         65.3730  135.5180   67.7310 C.2   176  SER176      0.2642
     37  O         64.2700  135.9990   67.9910 O.2   176  SER176     -0.2714
     38  CB        66.6020  133.3610   67.4390 C.3   176  SER176      0.2130
     39  OG        66.7420  132.1710   66.6780 O.3   176  SER176     -0.2179
     40  N         66.5140  136.0440   68.1650 N.am  177  ARG177     -0.1977
     41  CA        66.5400  137.2310   69.0080 C.3   177  ARG177      0.1597
     42  C         65.7890  138.4210   68.4210 C.2   177  ARG177      0.2287
     43  O         66.0690  138.8630   67.3060 O.2   177  ARG177     -0.2864
     44  CB        67.9910  137.6180   69.3230 C.3   177  ARG177      0.0334
     45  CG        68.6490  136.6910   70.3470 C.3   177  ARG177      0.0492
     46  CD        70.1340  136.9910   70.5840 C.3   177  ARG177      0.2205
     47  NE        70.9880  136.5900   69.4650 N.pl3 177  ARG177     -0.0865
     48  CZ        71.1530  137.2950   68.3480 C.cat 177  ARG177      0.5346
     49  NH1       70.5250  138.4550   68.1890 N.pl3 177  ARG177      0.1354
     50  NH2       71.9450  136.8380   67.3810 N.pl3 177  ARG177      0.1354
     51  N         64.8910  140.0390   54.1090 N.3   186  ALA186     -0.1231
     52  CA        66.0290  139.7470   54.9720 C.3   186  ALA186      0.1694
     53  C         66.4100  138.2630   54.9350 C.2   186  ALA186      0.2592
     54  O         67.4910  137.8740   55.3750 O.2   186  ALA186     -0.2718
     55  CB        65.7040  140.1720   56.4010 C.3   186  ALA186      0.0304
     56  N         65.5120  137.4440   54.4050 N.am  187  ASP187     -0.1974
     57  CA        65.7300  136.0070   54.2950 C.3   187  ASP187      0.1709
     58  C         66.8230  135.6830   53.2820 C.2   187  ASP187      0.2293
     59  O         67.1430  134.5190   53.0710 O.2   187  ASP187     -0.2864
     60  CB        64.4330  135.3170   53.8520 C.3   187  ASP187      0.1436
     61  CG        63.8160  134.4670   54.9440 C.2   187  ASP187      0.3671
     62  OD1       63.4120  135.0180   55.9930 O.co2 187  ASP187     -0.2456
     63  OD2       63.7310  133.2380   54.7520 O.co2 187  ASP187     -0.2456
     64  N         70.0200  137.5990   53.0900 N.3   189  ILE189     -0.1245
     65  CA        71.3520  137.9430   53.5560 C.3   189  ILE189      0.1561
     66  C         72.0540  136.7190   54.1660 C.2   189  ILE189      0.2260
     67  O         71.5070  136.0340   55.0420 O.2   189  ILE189     -0.2867
     68  CB        71.2830  139.0680   54.5900 C.3   189  ILE189      0.0252
     69  CG1       72.6870  139.5350   54.9500 C.3   189  ILE189      0.0019
     70  CG2       70.5690  138.5830   55.8310 C.3   189  ILE189      0.0019
     71  CD1       72.7040  140.7640   55.8330 C.3   189  ILE189      0.0001
     72  N         71.5200  142.8460   64.4350 N.3   200  HIS200     -0.1241
     73  CA        71.0250  143.5520   63.2560 C.3   200  HIS200      0.1621
     74  C         69.5000  143.6010   63.2090 C.2   200  HIS200      0.2264
     75  O         68.9150  144.0880   62.2400 O.2   200  HIS200     -0.2867
     76  CB        71.5550  142.8550   62.0010 C.3   200  HIS200      0.0745
     77  CG        72.7730  142.0170   62.2490 C.ar  200  HIS200      0.0817
     78  ND1       73.9960  142.5590   62.5860 N.ar  200  HIS200     -0.2268
     79  CD2       72.9460  140.6730   62.2510 C.ar  200  HIS200      0.1154
     80  CE1       74.8680  141.5860   62.7860 C.ar  200  HIS200      0.1986
     81  NE2       74.2570  140.4320   62.5900 N.ar  200  HIS200     -0.2212
     82  N         76.0860  139.1180   57.6050 N.3   222  ILE222     -0.1231
     83  CA        75.7790  139.2490   59.0210 C.3   222  ILE222      0.1692
     84  C         76.2470  137.9930   59.7450 C.2   222  ILE222      0.2592
     85  O         76.5210  136.9680   59.1240 O.2   222  ILE222     -0.2718
     86  CB        74.2800  139.3960   59.2790 C.3   222  ILE222      0.0266
     87  CG1       73.5200  138.2910   58.5460 C.3   222  ILE222      0.0019
     88  CG2       73.8230  140.7800   58.8710 C.3   222  ILE222      0.0020
     89  CD1       72.0900  138.1340   59.0140 C.3   222  ILE222      0.0001
     90  N         76.3310  138.0850   61.0650 N.am  223  GLN223     -0.1966
     91  CA        76.7580  136.9740   61.8970 C.3   223  GLN223      0.1733
     92  C         75.5260  136.2650   62.4190 C.2   223  GLN223      0.2616
     93  O         74.7370  136.8560   63.1520 O.2   223  GLN223     -0.2715
     94  CB        77.5810  137.5020   63.0740 C.3   223  GLN223      0.0408
     95  CG        77.8130  136.4930   64.1800 C.3   223  GLN223      0.0908
     96  CD        78.4850  135.2560   63.6720 C.2   223  GLN223      0.2608
     97  OE1       79.5450  135.3320   63.0660 O.2   223  GLN223     -0.2717
     98  NE2       77.8780  134.1070   63.9070 N.am  223  GLN223     -0.0878
     99  N         75.3500  135.0040   62.0510 N.am  224  TYR224     -0.1960
    100  CA        74.1890  134.2720   62.5290 C.3   224  TYR224      0.1771
    101  C         74.2390  133.9980   64.0310 C.2   224  TYR224      0.2619
    102  O         73.2510  134.2060   64.7290 O.2   224  TYR224     -0.2715
    103  CB        74.0270  132.9590   61.7630 C.3   224  TYR224      0.0574
    104  CG        73.5330  133.1300   60.3410 C.ar  224  TYR224     -0.0198
    105  CD1       73.2090  132.0160   59.5570 C.ar  224  TYR224     -0.0009
    106  CD2       73.3840  134.4020   59.7740 C.ar  224  TYR224     -0.0009
    107  CE1       72.7440  132.1600   58.2420 C.ar  224  TYR224      0.0417
    108  CE2       72.9200  134.5590   58.4550 C.ar  224  TYR224      0.0417
    109  CZ        72.6020  133.4320   57.7010 C.ar  224  TYR224      0.1957
    110  OH        72.1370  133.5760   56.4130 O.3   224  TYR224     -0.2866
    111  N         75.3830  133.5400   64.5310 N.am  225  ASP225     -0.1971
    112  CA        75.5220  133.2430   65.9600 C.3   225  ASP225      0.1709
    113  C         76.9660  132.9180   66.3350 C.2   225  ASP225      0.2293
    114  O         77.5630  131.9790   65.8150 O.2   225  ASP225     -0.2864
    115  CB        74.6060  132.0750   66.3530 C.3   225  ASP225      0.1436
    116  CG        74.6370  131.7890   67.8460 C.2   225  ASP225      0.3671
    117  OD1       75.7280  131.4620   68.3740 O.co2 225  ASP225     -0.2456
    118  OD2       73.5750  131.8920   68.4910 O.co2 225  ASP225     -0.2456
    119  N         77.3590  129.2770   68.5690 N.3   228  LYS228     -0.1245
    120  CA        77.0580  127.9360   68.0880 C.3   228  LYS228      0.1561
    121  C         78.3370  127.1890   67.7180 C.2   228  LYS228      0.2260
    122  O         79.3410  127.7940   67.3440 O.2   228  LYS228     -0.2867
    123  CB        76.1280  127.9970   66.8760 C.3   228  LYS228      0.0271
    124  CG        74.6900  128.3240   67.2300 C.3   228  LYS228      0.0035
    125  CD        73.8050  128.4900   66.0000 C.3   228  LYS228      0.0206
    126  CE        72.3260  128.6080   66.3850 C.3   228  LYS228      0.1093
    127  NZ        71.4530  128.8550   65.1900 N.3   228  LYS228     -0.1314
    128  N         71.8750  125.3620   59.6950 N.3   237  TYR237     -0.1241
    129  CA        72.0580  125.8430   58.3270 C.3   237  TYR237      0.1605
    130  C         72.8800  124.7390   57.6970 C.2   237  TYR237      0.2264
    131  O         73.2120  123.7610   58.3690 O.2   237  TYR237     -0.2867
    132  CB        72.8290  127.1640   58.3180 C.3   237  TYR237      0.0534
    133  CG        72.4200  128.0960   59.4310 C.ar  237  TYR237     -0.0201
    134  CD1       73.2100  128.2390   60.5710 C.ar  237  TYR237     -0.0009
    135  CD2       71.2100  128.7830   59.3820 C.ar  237  TYR237     -0.0009
    136  CE1       72.8040  129.0380   61.6410 C.ar  237  TYR237      0.0417
    137  CE2       70.7940  129.5850   60.4440 C.ar  237  TYR237      0.0417
    138  CZ        71.5960  129.7040   61.5700 C.ar  237  TYR237      0.1957
    139  OH        71.1750  130.4790   62.6350 O.3   237  TYR237     -0.2866
@<TRIPOS>BOND
     1    17    15    1
     2    15    16    1
     3    15    14    2
     4    59    58    2
     5    64    65    1
     6    14    13    1
     7    58    57    1
     8    65    66    1
     9    65    68    1
    10    60    57    1
    11    60    61    1
    12    51    52    1
    13    66    67    2
    14    57    56    1
    15    56    53   am
    16    13    12    1
    17    68    69    1
    18    68    70    1
    19    63    61   ar
    20    53    52    1
    21    53    54    2
    22    61    62   ar
    23    69    71    1
    24    52    55    1
    25    12    11    1
    26     6     5    1
    27   110   109    1
    28    11     8    1
    29     5     2    1
    30    82    83    1
    31     4     3    2
    32   130   129    1
    33   130   131    2
    34   109   107   ar
    35   109   108   ar
    36     8     7    1
    37     8     9    1
    38     3     7   am
    39     3     2    1
    40   107   105   ar
    41   132   129    1
    42   132   133    1
    43   129   128    1
    44   108   106   ar
    45    87    89    1
    46    87    86    1
    47     2     1    1
    48    10     9    2
    49    88    86    1
    50     9    18   am
    51    33    31   ar
    52    33    32   ar
    53    83    86    1
    54    83    84    1
    55    85    84    2
    56    31    29   ar
    57   135   133   ar
    58   135   137   ar
    59   133   134   ar
    60   105   104   ar
    61    84    90   am
    62    18    19    1
    63   106   104   ar
    64    32    30   ar
    65   104   103    1
    66    29    28   ar
    67   137   138   ar
    68   134   136   ar
    69    19    22    1
    70    19    20    1
    71    90    91    1
    72    30    28   ar
    73    28    27    1
    74   138   136   ar
    75   138   139    1
    76    20    21    2
    77    20    23   am
    78   103   100    1
    79    91    92    1
    80    91    94    1
    81    76    77    1
    82    76    73    1
    83    99    92   am
    84    99   100    1
    85    75    74    2
    86    77    79   ar
    87    77    78   ar
    88    79    81   ar
    89    23    24    1
    90    92    93    2
    91   100   101    1
    92    78    80   ar
    93    81    80   ar
    94    27    24    1
    95    97    96    2
    96    94    95    1
    97    74    73    1
    98    24    25    1
    99    73    72    1
   100    96    98   am
   101    96    95    1
   102   101   111   am
   103   101   102    2
   104   111   112    1
   105    25    26    2
   106    25    34   am
   107   127   126    1
   108    34    35    1
   109   114   113    2
   110   112   113    1
   111   112   115    1
   112   125   126    1
   113   125   124    1
   114   115   116    1
   115    39    38    1
   116    35    38    1
   117    35    36    1
   118   123   124    1
   119   123   120    1
   120    43    42    2
   121   122   121    2
   122    50    48    1
   123   121   120    1
   124    36    37    2
   125    36    40   am
   126   116   117   ar
   127   116   118   ar
   128   120   119    1
   129    40    41    1
   130    49    48    1
   131    48    47    2
   132    42    41    1
   133    41    44    1
   134    44    45    1
   135    47    46    1
   136    45    46    1
