@<TRIPOS>MOLECULE
tmp/2h39B00.pdb
 93 91 0 0 0
SMALL
GASTEIGER

@<TRIPOS>ATOM
      1  N         -0.3460   -8.7180  -25.7140 N.3    21  ARG21      -0.1245
      2  CA         0.6120   -7.6340  -25.4910 C.3    21  ARG21       0.1563
      3  C          1.1630   -6.9980  -26.7690 C.2    21  ARG21       0.2260
      4  O          1.4130   -5.8000  -26.7790 O.2    21  ARG21      -0.2867
      5  CB         1.7710   -8.1760  -24.6720 C.3    21  ARG21       0.0307
      6  CG         1.3510   -8.5460  -23.2620 C.3    21  ARG21       0.0489
      7  CD         1.9000   -7.5210  -22.3480 C.3    21  ARG21       0.2205
      8  NE         1.0370   -6.3950  -22.1320 N.pl3  21  ARG21      -0.0865
      9  CZ         1.4490   -5.2010  -21.7290 C.cat  21  ARG21       0.5346
     10  NH1        2.7230   -4.9390  -21.5540 N.pl3  21  ARG21       0.1354
     11  NH2        0.5620   -4.2510  -21.5310 N.pl3  21  ARG21       0.1354
     12  N         -0.8630   -3.8710  -28.4370 N.3    24  ARG24      -0.1231
     13  CA        -1.0950   -2.5940  -27.7570 C.3    24  ARG24       0.1679
     14  C         -0.5780   -1.4230  -28.6030 C.2    24  ARG24       0.2434
     15  O          0.4410   -1.5700  -29.2550 O.2    24  ARG24      -0.2733
     16  CB        -0.4790   -2.5820  -26.3390 C.3    24  ARG24       0.0321
     17  CG         1.0670   -2.4100  -26.2610 C.3    24  ARG24       0.0489
     18  CD         1.5660   -2.7640  -24.8400 C.3    24  ARG24       0.2205
     19  NE         2.9810   -2.4280  -24.6180 N.pl3  24  ARG24      -0.0865
     20  CZ         4.0010   -3.2350  -24.8980 C.cat  24  ARG24       0.5346
     21  NH1        3.7940   -4.4200  -25.4800 N.pl3  24  ARG24       0.1354
     22  NH2        5.2360   -2.8450  -24.6270 N.pl3  24  ARG24       0.1354
     23  N         -1.2540   -0.2490  -28.5540 N.am   25  PRO25      -0.2729
     24  CA        -0.7060    0.9080  -29.2760 C.3    25  PRO25       0.1401
     25  C          0.5040    1.5100  -28.5700 C.2    25  PRO25       0.2269
     26  O          0.7850    1.1780  -27.4020 O.2    25  PRO25      -0.2865
     27  CB        -1.8510    1.9180  -29.2480 C.3    25  PRO25       0.0296
     28  CG        -2.6210    1.5840  -27.9520 C.3    25  PRO25       0.0237
     29  CD        -2.5090    0.0760  -27.8350 C.3    25  PRO25       0.0939
     30  N          4.8930    6.6230  -29.1790 N.3    28  PHE28      -0.1241
     31  CA         6.2820    7.0080  -29.4510 C.3    28  PHE28       0.1605
     32  C          6.7880    6.5790  -30.8390 C.2    28  PHE28       0.2264
     33  O          6.4530    5.4950  -31.3240 O.2    28  PHE28      -0.2867
     34  CB         7.1960    6.4560  -28.3400 C.3    28  PHE28       0.0534
     35  CG         6.8870    7.0140  -26.9630 C.ar   28  PHE28      -0.0203
     36  CD1        6.0840    6.3120  -26.0760 C.ar   28  PHE28      -0.0042
     37  CD2        7.4040    8.2540  -26.5590 C.ar   28  PHE28      -0.0042
     38  CE1        5.8060    6.8140  -24.8240 C.ar   28  PHE28      -0.0003
     39  CE2        7.1260    8.7680  -25.2920 C.ar   28  PHE28      -0.0003
     40  CZ         6.3280    8.0450  -24.4260 C.ar   28  PHE28      -0.0000
     41  N         12.4920   -5.9950  -27.8730 N.3   282  SER282     -0.1202
     42  CA        12.2110   -4.7730  -27.1080 C.3   282  SER282      0.2020
     43  C         12.8290   -4.7840  -25.6880 C.2   282  SER282      0.2619
     44  O         13.4590   -5.7590  -25.2740 O.2   282  SER282     -0.2717
     45  CB        10.7160   -4.5070  -27.0130 C.3   282  SER282      0.2103
     46  OG        10.1680   -5.4060  -26.0860 O.3   282  SER282     -0.2182
     47  N         12.6320   -3.6880  -24.9580 N.am  283  GLY283     -0.1942
     48  CA        13.1380   -3.5670  -23.6040 C.3   283  GLY283      0.2014
     49  C         12.0890   -4.0320  -22.6050 C.2   283  GLY283      0.2639
     50  O         11.1030   -4.6650  -22.9740 O.2   283  GLY283     -0.2714
     51  N         12.3370   -3.7180  -21.3440 N.am  284  VAL284     -0.1963
     52  CA        11.5280   -4.1660  -20.2230 C.3   284  VAL284      0.1727
     53  C         11.1120   -2.8900  -19.5220 C.2   284  VAL284      0.2617
     54  O         11.6020   -1.7980  -19.8620 O.2   284  VAL284     -0.2715
     55  CB        12.3490   -5.0490  -19.2430 C.3   284  VAL284      0.0290
     56  CG1       12.7210   -6.3510  -19.8970 C.3   284  VAL284      0.0023
     57  CG2       13.6400   -4.3250  -18.7690 C.3   284  VAL284      0.0023
     58  N         10.1890   -3.0210  -18.5810 N.am  285  GLY285     -0.1940
     59  CA         9.7070   -1.9050  -17.8570 C.3   285  GLY285      0.2014
     60  C          9.8220   -2.2390  -16.4080 C.2   285  GLY285      0.2639
     61  O         10.5770   -3.1240  -16.0410 O.2   285  GLY285     -0.2714
     62  N          9.0280   -1.5570  -15.5960 N.am  286  GLY286     -0.1939
     63  CA         9.0140   -1.7430  -14.1700 C.3   286  GLY286      0.2014
     64  C          8.5600   -3.0880  -13.6570 C.2   286  GLY286      0.2639
     65  O          8.8750   -3.4430  -12.5030 O.2   286  GLY286     -0.2714
     66  N          7.7640   -3.8140  -14.4350 N.am  287  PHE287     -0.1959
     67  CA         7.2570   -5.1150  -13.9520 C.3   287  PHE287      0.1771
     68  C          8.4380   -6.0670  -13.7730 C.2   287  PHE287      0.2619
     69  O          8.5830   -6.7120  -12.7100 O.2   287  PHE287     -0.2715
     70  CB         6.2020   -5.7620  -14.8810 C.3   287  PHE287      0.0574
     71  CG         5.8280   -7.1330  -14.4580 C.ar  287  PHE287     -0.0200
     72  CD1        5.0460   -7.3240  -13.3100 C.ar  287  PHE287     -0.0042
     73  CD2        6.2950   -8.2520  -15.1600 C.ar  287  PHE287     -0.0042
     74  CE1        4.7470   -8.6110  -12.8830 C.ar  287  PHE287     -0.0003
     75  CE2        5.9980   -9.5530  -14.7300 C.ar  287  PHE287     -0.0003
     76  CZ         5.2230   -9.7330  -13.5970 C.ar  287  PHE287     -0.0000
     77  N          9.2890   -6.1060  -14.7980 N.am  288  GLU288     -0.1977
     78  CA        10.4150   -7.0240  -14.8970 C.3   288  GLU288      0.1602
     79  C         11.5390   -6.6690  -13.9400 C.2   288  GLU288      0.2287
     80  O         12.0780   -7.5450  -13.2550 O.2   288  GLU288     -0.2864
     81  CB        10.9400   -7.0740  -16.3480 C.3   288  GLU288      0.0415
     82  CG         9.9790   -7.7500  -17.3420 C.3   288  GLU288      0.1163
     83  CD         9.0510   -6.7640  -18.0740 C.2   288  GLU288      0.3649
     84  OE1        8.3580   -7.1940  -18.9870 O.co2 288  GLU288     -0.2457
     85  OE2        9.0210   -5.5590  -17.7610 O.co2 288  GLU288     -0.2457
     86  N          7.7280  -11.0930  -19.5420 N.3   295  ILE295     -0.1245
     87  CA         6.4680  -11.2810  -20.2840 C.3   295  ILE295      0.1561
     88  C          6.8550  -11.5420  -21.7200 C.2   295  ILE295      0.2260
     89  O          7.5330  -10.7260  -22.3040 O.2   295  ILE295     -0.2867
     90  CB         5.5480   -9.9980  -20.2310 C.3   295  ILE295      0.0252
     91  CG1        4.9920   -9.7610  -18.8210 C.3   295  ILE295      0.0019
     92  CG2        4.3370  -10.1230  -21.1900 C.3   295  ILE295      0.0019
     93  CD1        4.8130   -8.2360  -18.4790 C.3   295  ILE295      0.0001
@<TRIPOS>BOND
     1    33    32    2
     2    32    31    1
     3    31    30    1
     4    31    34    1
     5    24    27    1
     6    24    25    1
     7    24    23    1
     8    15    14    2
     9    27    28    1
    10    14    23   am
    11    14    13    1
    12    25    26    2
    13    23    29    1
    14    12    13    1
    15    34    35    1
    16    28    29    1
    17    41    42    1
    18    13    16    1
    19    42    45    1
    20    42    43    1
    21    45    46    1
    22    35    37   ar
    23    35    36   ar
    24     4     3    2
    25     3     2    1
    26    37    39   ar
    27    16    17    1
    28    17    18    1
    29    36    38   ar
    30     1     2    1
    31    43    44    2
    32    43    47   am
    33     2     5    1
    34    21    20    1
    35    39    40   ar
    36    47    48    1
    37    20    22    1
    38    20    19    2
    39    18    19    1
    40    38    40   ar
    41     5     6    1
    42    48    49    1
    43     6     7    1
    44    50    49    2
    45    49    51   am
    46     7     8    1
    47    89    88    2
    48     8     9    2
    49     9    10    1
    50     9    11    1
    51    88    87    1
    52    51    52    1
    53    92    90    1
    54    87    90    1
    55    87    86    1
    56    90    91    1
    57    52    53    1
    58    52    55    1
    59    56    55    1
    60    54    53    2
    61    53    58   am
    62    55    57    1
    63    84    83   ar
    64    91    93    1
    65    58    59    1
    66    83    85   ar
    67    83    82    1
    68    59    60    1
    69    82    81    1
    70    60    61    2
    71    60    62   am
    72    81    78    1
    73    62    63    1
    74    73    75   ar
    75    73    71   ar
    76    78    77    1
    77    78    79    1
    78    70    71    1
    79    70    67    1
    80    77    68   am
    81    75    76   ar
    82    71    72   ar
    83    66    67    1
    84    66    64   am
    85    63    64    1
    86    67    68    1
    87    79    80    2
    88    68    69    2
    89    64    65    2
    90    76    74   ar
    91    72    74   ar
