@<TRIPOS>MOLECULE
tmp/2h39B01.pdb
 168 162 0 0 0
SMALL
GASTEIGER

@<TRIPOS>ATOM
      1  N         40.0890    0.4550  -34.0400 N.3    33  PRO33      -0.2102
      2  CA        41.2570   -0.1890  -33.4420 C.3    33  PRO33       0.1504
      3  C         41.2920   -1.7180  -33.5360 C.2    33  PRO33       0.2575
      4  O         42.3710   -2.3110  -33.4780 O.2    33  PRO33      -0.2718
      5  CB        41.2110    0.2580  -31.9650 C.3    33  PRO33       0.0282
      6  CG        40.3300    1.3570  -31.8840 C.3    33  PRO33       0.0208
      7  CD        39.3910    1.3300  -33.0820 C.3    33  PRO33       0.0893
      8  N         40.1450   -2.3610  -33.7080 N.am   34  PHE34      -0.1977
      9  CA        40.1090   -3.8300  -33.8860 C.3    34  PHE34       0.1639
     10  C         40.5120   -4.3440  -35.2850 C.2    34  PHE34       0.2290
     11  O         40.7880   -5.5460  -35.4470 O.2    34  PHE34      -0.2864
     12  CB        38.7030   -4.3830  -33.5490 C.3    34  PHE34       0.0560
     13  CG        38.3240   -4.2620  -32.0960 C.ar   34  PHE34      -0.0200
     14  CD1       39.2510   -3.8400  -31.1490 C.ar   34  PHE34      -0.0042
     15  CD2       37.0340   -4.6170  -31.6760 C.ar   34  PHE34      -0.0042
     16  CE1       38.9040   -3.7460  -29.8080 C.ar   34  PHE34      -0.0003
     17  CE2       36.6660   -4.5270  -30.3150 C.ar   34  PHE34      -0.0003
     18  CZ        37.6050   -4.0810  -29.3860 C.ar   34  PHE34      -0.0000
     19  N         46.8490   -0.2250  -31.1580 N.3    41  GLU41      -0.1231
     20  CA        45.7860    0.5730  -30.5560 C.3    41  GLU41       0.1699
     21  C         44.8830   -0.2160  -29.6020 C.2    41  GLU41       0.2592
     22  O         43.9440    0.3540  -29.0350 O.2    41  GLU41      -0.2718
     23  CB        44.9240    1.1560  -31.6480 C.3    41  GLU41       0.0402
     24  CG        45.6130    2.2390  -32.3980 C.3    41  GLU41       0.1161
     25  CD        44.7010    2.8670  -33.3890 C.2    41  GLU41       0.3649
     26  OE1       43.6740    3.4280  -32.9680 O.co2  41  GLU41      -0.2457
     27  OE2       45.0060    2.7700  -34.5830 O.co2  41  GLU41      -0.2457
     28  N         45.1760   -1.5110  -29.4420 N.am   42  CYS42      -0.1956
     29  CA        44.4260   -2.4140  -28.5690 C.3    42  CYS42       0.1843
     30  C         45.1790   -2.7130  -27.2940 C.2    42  CYS42       0.2625
     31  O         46.4200   -2.6360  -27.2690 O.2    42  CYS42      -0.2714
     32  CB        44.1700   -3.7420  -29.2740 C.3    42  CYS42       0.0997
     33  SG        43.1440   -3.6030  -30.7280 S.3    42  CYS42      -0.0797
     34  N         44.4240   -3.0590  -26.2450 N.am   43  ALA43      -0.1977
     35  CA        44.9770   -3.6490  -25.0390 C.3    43  ALA43       0.1597
     36  C         45.7090   -4.9690  -25.3690 C.2    43  ALA43       0.2287
     37  O         45.5540   -5.5150  -26.4690 O.2    43  ALA43      -0.2864
     38  CB        43.8810   -3.8670  -24.0310 C.3    43  ALA43       0.0319
     39  N         42.0700  -10.8180  -26.8800 N.3    61  ILE61      -0.1231
     40  CA        42.8060   -9.6940  -26.2830 C.3    61  ILE61       0.1692
     41  C         42.1830   -9.2750  -24.9370 C.2    61  ILE61       0.2592
     42  O         41.0590   -9.6570  -24.6100 O.2    61  ILE61      -0.2718
     43  CB        42.8710   -8.4360  -27.2380 C.3    61  ILE61       0.0266
     44  CG1       41.5100   -7.7150  -27.3170 C.3    61  ILE61       0.0019
     45  CG2       43.5180   -8.7630  -28.6510 C.3    61  ILE61       0.0020
     46  CD1       41.6100   -6.2970  -27.7890 C.3    61  ILE61       0.0001
     47  N         42.8960   -8.4590  -24.1820 N.am   62  GLU62      -0.1966
     48  CA        42.3630   -7.9230  -22.9440 C.3    62  GLU62       0.1733
     49  C         41.3750   -6.8230  -23.2260 C.2    62  GLU62       0.2616
     50  O         41.4840   -6.1110  -24.2150 O.2    62  GLU62      -0.2715
     51  CB        43.4890   -7.4420  -22.0240 C.3    62  GLU62       0.0429
     52  CG        44.3570   -8.6190  -21.6350 C.3    62  GLU62       0.1163
     53  CD        45.4800   -8.3240  -20.6600 C.2    62  GLU62       0.3649
     54  OE1       46.0880   -9.3390  -20.2640 O.co2  62  GLU62      -0.2457
     55  OE2       45.7840   -7.1430  -20.3170 O.co2  62  GLU62      -0.2457
     56  N         40.3790   -6.7010  -22.3640 N.am   63  ASN63      -0.1958
     57  CA        39.4450   -5.6260  -22.5350 C.3    63  ASN63       0.1819
     58  C         40.1360   -4.4140  -21.9630 C.2    63  ASN63       0.2621
     59  O         40.6460   -4.4780  -20.8430 O.2    63  ASN63      -0.2715
     60  CB        38.1390   -5.9230  -21.8020 C.3    63  ASN63       0.1195
     61  CG        37.0040   -5.0940  -22.3000 C.2    63  ASN63       0.2630
     62  OD1       37.0560   -3.8390  -22.2600 O.2    63  ASN63      -0.2716
     63  ND2       35.9280   -5.7750  -22.7620 N.am   63  ASN63      -0.0877
     64  N         40.1670   -3.3300  -22.7370 N.am   64  LEU64      -0.1963
     65  CA        40.8100   -2.0640  -22.3410 C.3    64  LEU64       0.1728
     66  C         40.0810   -1.2790  -21.2650 C.2    64  LEU64       0.2616
     67  O         40.7030   -0.5040  -20.5320 O.2    64  LEU64      -0.2715
     68  CB        40.9940   -1.1770  -23.5720 C.3    64  LEU64       0.0311
     69  CG        41.7460    0.1550  -23.4480 C.3    64  LEU64       0.0022
     70  CD1       43.2040   -0.0770  -23.0250 C.3    64  LEU64       0.0001
     71  CD2       41.6460    0.9000  -24.7760 C.3    64  LEU64       0.0001
     72  N         38.7690   -1.4610  -21.1630 N.am   65  TYR65      -0.1974
     73  CA        37.9940   -0.9090  -20.0470 C.3    65  TYR65       0.1639
     74  C         37.3390   -2.0830  -19.2750 C.2    65  TYR65       0.2290
     75  O         36.1130   -2.3190  -19.3910 O.2    65  TYR65      -0.2864
     76  CB        36.9960    0.1250  -20.5580 C.3    65  TYR65       0.0560
     77  CG        37.6290    1.1380  -21.5150 C.ar   65  TYR65      -0.0198
     78  CD1       37.7590    0.8370  -22.9000 C.ar   65  TYR65      -0.0009
     79  CD2       38.1230    2.3750  -21.0540 C.ar   65  TYR65      -0.0009
     80  CE1       38.3500    1.7210  -23.7930 C.ar   65  TYR65       0.0417
     81  CE2       38.7380    3.3030  -21.9690 C.ar   65  TYR65       0.0417
     82  CZ        38.8360    2.9590  -23.3350 C.ar   65  TYR65       0.1957
     83  OH        39.4050    3.8320  -24.2680 O.3    65  TYR65      -0.2866
     84  N         38.5420   -9.9160  -17.8870 N.3    86  HIS86      -0.1241
     85  CA        37.6290   -9.4180  -18.8840 C.3    86  HIS86       0.1621
     86  C         38.3970   -9.3380  -20.2100 C.2    86  HIS86       0.2264
     87  O         39.3160   -8.5420  -20.3170 O.2    86  HIS86      -0.2867
     88  CB        37.1240   -8.0530  -18.4650 C.3    86  HIS86       0.0745
     89  CG        35.9460   -7.5810  -19.2570 C.ar   86  HIS86       0.0817
     90  ND1       35.2880   -6.4020  -18.9780 N.ar   86  HIS86      -0.2268
     91  CD2       35.2810   -8.1490  -20.2930 C.ar   86  HIS86       0.1154
     92  CE1       34.2840   -6.2500  -19.8250 C.ar   86  HIS86       0.1986
     93  NE2       34.2550   -7.2990  -20.6290 N.ar   86  HIS86      -0.2212
     94  N         38.3230   -9.7570  -24.7610 N.3    88  VAL88      -0.1245
     95  CA        37.5230   -9.4960  -25.9620 C.3    88  VAL88       0.1561
     96  C         38.0120  -10.4620  -27.0240 C.2    88  VAL88       0.2260
     97  O         39.2150  -10.7670  -27.1140 O.2    88  VAL88      -0.2867
     98  CB        37.7440   -8.0370  -26.5300 C.3    88  VAL88       0.0252
     99  CG1       37.1160   -7.8350  -27.9370 C.3    88  VAL88       0.0019
    100  CG2       37.2430   -6.9650  -25.5870 C.3    88  VAL88       0.0019
    101  N         29.9370  -14.4310  -24.0950 N.3   133  PHE133     -0.1241
    102  CA        28.7580  -13.7810  -24.6130 C.3   133  PHE133      0.1605
    103  C         29.1540  -12.8710  -25.7690 C.2   133  PHE133      0.2264
    104  O         30.3250  -12.5910  -25.9750 O.2   133  PHE133     -0.2867
    105  CB        28.0370  -12.9810  -23.5220 C.3   133  PHE133      0.0534
    106  CG        28.7980  -11.8080  -23.0270 C.ar  133  PHE133     -0.0203
    107  CD1       28.6420  -10.5540  -23.6200 C.ar  133  PHE133     -0.0042
    108  CD2       29.6580  -11.9380  -21.9900 C.ar  133  PHE133     -0.0042
    109  CE1       29.3770   -9.4730  -23.1640 C.ar  133  PHE133     -0.0003
    110  CE2       30.3580  -10.8690  -21.5090 C.ar  133  PHE133     -0.0003
    111  CZ        30.2280   -9.6340  -22.0950 C.ar  133  PHE133     -0.0000
    112  N         27.5120   -9.4240  -28.0920 N.3   135  ASN135     -0.1240
    113  CA        26.6000   -8.3390  -28.3900 C.3   135  ASN135      0.1653
    114  C         26.7920   -7.9800  -29.8840 C.2   135  ASN135      0.2266
    115  O         27.9330   -7.7560  -30.3520 O.2   135  ASN135     -0.2867
    116  CB        26.9440   -7.1120  -27.5110 C.3   135  ASN135      0.1155
    117  CG        27.0310   -7.4440  -25.9970 C.2   135  ASN135      0.2627
    118  OD1       26.1740   -8.1410  -25.4630 O.2   135  ASN135     -0.2716
    119  ND2       28.0500   -6.9030  -25.3080 N.am  135  ASN135     -0.0877
    120  N         21.3300   -3.9460  -28.5580 N.3   140  ALA140     -0.1231
    121  CA        21.8390   -5.0880  -27.7870 C.3   140  ALA140      0.1694
    122  C         23.0850   -4.7500  -26.9280 C.2   140  ALA140      0.2593
    123  O         23.7400   -5.6450  -26.3870 O.2   140  ALA140     -0.2718
    124  CB        22.1120   -6.2520  -28.6870 C.3   140  ALA140      0.0304
    125  N         23.3880   -3.4590  -26.7960 N.am  141  GLY141     -0.1942
    126  CA        24.4470   -2.9900  -25.9030 C.3   141  GLY141      0.2014
    127  C         25.8100   -2.7730  -26.5130 C.2   141  GLY141      0.2639
    128  O         26.7240   -2.2970  -25.8480 O.2   141  GLY141     -0.2714
    129  N         25.9540   -3.1300  -27.7820 N.am  142  ALA142     -0.1963
    130  CA        27.2370   -3.0030  -28.5140 C.3   142  ALA142      0.1728
    131  C         27.7860   -1.5740  -28.5570 C.2   142  ALA142      0.2617
    132  O         27.0470   -0.6210  -28.8320 O.2   142  ALA142     -0.2715
    133  CB        27.0760   -3.5220  -29.9020 C.3   142  ALA142      0.0334
    134  N         29.0830   -1.4390  -28.2750 N.am  143  SER143     -0.1936
    135  CA        29.7550   -0.1370  -28.4040 C.3   143  SER143      0.2055
    136  C         30.7870   -0.1600  -29.5450 C.2   143  SER143      0.2642
    137  O         31.0850    0.8660  -30.1290 O.2   143  SER143     -0.2714
    138  CB        30.4120    0.2980  -27.0780 C.3   143  SER143      0.2130
    139  OG        31.5340   -0.5190  -26.7540 O.3   143  SER143     -0.2179
    140  N         31.3450   -1.3170  -29.8500 N.am  144  MET144     -0.1976
    141  CA        32.1760   -1.4370  -31.0300 C.3   144  MET144      0.1605
    142  C         31.3660   -2.0590  -32.1590 C.2   144  MET144      0.2287
    143  O         30.8020   -3.1580  -32.0070 O.2   144  MET144     -0.2864
    144  CB        33.4350   -2.2500  -30.7250 C.3   144  MET144      0.0413
    145  CG        34.3230   -1.6360  -29.6100 C.3   144  MET144      0.0598
    146  SD        35.1870   -0.1190  -30.0690 S.3   144  MET144     -0.1393
    147  CE        36.5340   -0.8230  -31.0400 C.3   144  MET144      0.0692
    148  N         32.7510   -8.6500  -32.6210 N.3   148  GLY148     -0.1225
    149  CA        33.5170   -9.2150  -31.5160 C.3   148  GLY148      0.1811
    150  C         32.5420   -9.8240  -30.5480 C.2   148  GLY148      0.2280
    151  O         31.3310   -9.5430  -30.6520 O.2   148  GLY148     -0.2866
    152  N         32.8660  -11.5470  -26.0900 N.3   150  GLN150     -0.1245
    153  CA        33.6300  -11.1940  -24.8820 C.3   150  GLN150      0.1566
    154  C         33.5780  -12.3290  -23.8930 C.2   150  GLN150      0.2260
    155  O         32.6820  -13.1680  -23.9920 O.2   150  GLN150     -0.2867
    156  CB        33.0550   -9.9510  -24.1890 C.3   150  GLN150      0.0367
    157  CG        32.9080   -8.6640  -24.9940 C.3   150  GLN150      0.0905
    158  CD        32.5920   -7.5230  -24.0770 C.2   150  GLN150      0.2608
    159  OE1       33.3850   -7.2190  -23.1720 O.2   150  GLN150     -0.2717
    160  NE2       31.4180   -6.9060  -24.2520 N.am  150  GLN150     -0.0878
    161  N         34.1080  -13.0260  -19.5190 N.3   152  MET152     -0.1245
    162  CA        34.2050  -12.4150  -18.2250 C.3   152  MET152      0.1570
    163  C         34.3230  -13.5230  -17.1930 C.2   152  MET152      0.2261
    164  O         33.3430  -14.2300  -16.9520 O.2   152  MET152     -0.2867
    165  CB        32.9480  -11.5920  -17.9770 C.3   152  MET152      0.0387
    166  CG        33.0110  -10.8150  -16.6800 C.3   152  MET152      0.0595
    167  SD        33.0710   -9.0270  -16.8880 S.3   152  MET152     -0.1393
    168  CE        32.0040   -8.8190  -18.3270 C.3   152  MET152      0.0692
@<TRIPOS>BOND
     1    11    10    2
     2    10     9    1
     3    27    25   ar
     4     1     2    1
     5     1     7    1
     6     9     8    1
     7     9    12    1
     8     8     3   am
     9    12    13    1
    10     3     4    2
    11     3     2    1
    12     2     5    1
    13    25    26   ar
    14    25    24    1
    15     7     6    1
    16   148   149    1
    17    24    23    1
    18   142   143    2
    19   142   141    1
    20    13    15   ar
    21    13    14   ar
    22     5     6    1
    23    15    17   ar
    24    23    20    1
    25   149   150    1
    26    19    20    1
    27    14    16   ar
    28   147   146    1
    29   141   144    1
    30   141   140    1
    31    33    32    1
    32   144   145    1
    33   151   150    2
    34    20    21    1
    35   115   114    2
    36    17    18   ar
    37   137   136    2
    38   146   145    1
    39   133   130    1
    40   114   113    1
    41   140   136   am
    42    16    18   ar
    43    21    28   am
    44    21    22    2
    45   136   135    1
    46    28    29    1
    47    32    29    1
    48   132   131    2
    49   124   121    1
    50    45    43    1
    51    29    30    1
    52   120   121    1
    53   131   130    1
    54   131   134   am
    55   130   129    1
    56   135   134    1
    57   135   138    1
    58   113   112    1
    59   113   116    1
    60    99    98    1
    61    46    44    1
    62   121   122    1
    63   129   127   am
    64   116   117    1
    65    44    43    1
    66    30    31    2
    67    30    34   am
    68    43    40    1
    69    97    96    2
    70   138   139    1
    71    96    95    1
    72   122   125   am
    73   122   123    2
    74    39    40    1
    75   125   126    1
    76    98    95    1
    77    98   100    1
    78   127   126    1
    79   127   128    2
    80    37    36    2
    81    40    41    1
    82    34    35    1
    83   152   153    1
    84   117   118    2
    85   117   119   am
    86   104   103    2
    87    95    94    1
    88   103   102    1
    89    36    35    1
    90    35    38    1
    91   157   156    1
    92   157   158    1
    93    41    42    2
    94    41    47   am
    95   153   156    1
    96   153   154    1
    97    71    69    1
    98   102   101    1
    99   102   105    1
   100    83    82    1
   101   160   158   am
   102    50    49    2
   103    47    48    1
   104   158   159    2
   105   155   154    2
   106    80    82   ar
   107    80    78   ar
   108   107   109   ar
   109   107   106   ar
   110    68    69    1
   111    68    65    1
   112   105   106    1
   113    69    70    1
   114    82    81   ar
   115    49    48    1
   116    49    56   am
   117   109   111   ar
   118   106   108   ar
   119    48    51    1
   120    78    77   ar
   121    63    61   am
   122    64    65    1
   123    64    58   am
   124    57    56    1
   125    57    58    1
   126    57    60    1
   127    65    66    1
   128    61    62    2
   129    61    60    1
   130   111   110   ar
   131    51    52    1
   132   108   110   ar
   133    81    79   ar
   134    58    59    2
   135    52    53    1
   136    77    79   ar
   137    77    76    1
   138    66    72   am
   139    66    67    2
   140    72    73    1
   141    53    55   ar
   142    53    54   ar
   143    93    91   ar
   144    93    92   ar
   145    76    73    1
   146    87    86    2
   147    91    89   ar
   148    86    85    1
   149    73    74    1
   150    92    90   ar
   151   161   162    1
   152    75    74    2
   153    89    90   ar
   154    89    88    1
   155    85    88    1
   156    85    84    1
   157   168   167    1
   158   162   165    1
   159   162   163    1
   160   165   166    1
   161   163   164    2
   162   167   166    1
