@<TRIPOS>MOLECULE
tmp/2h3eC00.pdb
 158 153 0 0 0
SMALL
GASTEIGER

@<TRIPOS>ATOM
      1  N         61.9670   45.6230   58.5430 N.3    51  ALA51      -0.1231
      2  CA        63.2230   45.0850   59.0630 C.3    51  ALA51       0.1694
      3  C         63.8010   45.8670   60.2300 C.2    51  ALA51       0.2593
      4  O         63.5160   47.0450   60.4100 O.2    51  ALA51      -0.2718
      5  CB        64.2530   45.0080   57.9470 C.3    51  ALA51       0.0304
      6  N         64.6380   45.2040   61.0180 N.am   52  SER52      -0.1938
      7  CA        65.2530   45.8510   62.1660 C.3    52  SER52       0.2055
      8  C         66.1490   44.9220   62.9630 C.2    52  SER52       0.2644
      9  O         65.8850   43.7170   63.0630 O.2    52  SER52      -0.2714
     10  CB        64.1700   46.3900   63.1010 C.3    52  SER52       0.2130
     11  OG        64.7160   46.7290   64.3600 O.3    52  SER52      -0.2179
     12  N         67.2140   45.4840   63.5250 N.am   53  THR53      -0.1936
     13  CA        68.0980   44.7070   64.3740 C.3    53  THR53       0.2028
     14  C         68.1550   45.3720   65.7510 C.2    53  THR53       0.2642
     15  O         67.7140   44.7930   66.7430 O.2    53  THR53      -0.2714
     16  CB        69.5320   44.5810   63.7940 C.3    53  THR53       0.1808
     17  OG1       69.4940   43.8310   62.5750 O.3    53  THR53      -0.2208
     18  CG2       70.4430   43.8440   64.7850 C.3    53  THR53       0.0379
     19  N         68.6710   46.5970   65.7980 N.am   54  ARG54      -0.1963
     20  CA        68.8020   47.3380   67.0480 C.3    54  ARG54       0.1729
     21  C         67.4890   47.6560   67.7430 C.2    54  ARG54       0.2616
     22  O         67.3030   47.3230   68.9160 O.2    54  ARG54      -0.2715
     23  CB        69.5410   48.6680   66.8180 C.3    54  ARG54       0.0348
     24  CG        71.0560   48.6040   66.7360 C.3    54  ARG54       0.0492
     25  CD        71.5310   49.6200   65.7100 C.3    54  ARG54       0.2205
     26  NE        71.1130   49.1740   64.3860 N.pl3  54  ARG54      -0.0865
     27  CZ        71.9000   48.5010   63.5590 C.cat  54  ARG54       0.5346
     28  NH1       73.1460   48.2260   63.9100 N.pl3  54  ARG54       0.1354
     29  NH2       71.4240   48.0470   62.4170 N.pl3  54  ARG54       0.1354
     30  N         66.5830   48.3220   67.0310 N.am   55  THR55      -0.1951
     31  CA        65.3280   48.7230   67.6470 C.3    55  THR55       0.1897
     32  C         64.5070   47.5800   68.2380 C.2    55  THR55       0.2313
     33  O         64.0870   47.6670   69.3880 O.2    55  THR55      -0.2863
     34  CB        64.4550   49.5490   66.6710 C.3    55  THR55       0.1794
     35  OG1       65.2000   50.6820   66.2100 O.3    55  THR55      -0.2208
     36  CG2       63.2210   50.0650   67.3820 C.3    55  THR55       0.0378
     37  N         56.7060   48.9590   64.4820 N.3   105  ARG105     -0.1245
     38  CA        57.4620   49.6220   63.4220 C.3   105  ARG105      0.1563
     39  C         56.7080   49.2700   62.1440 C.2   105  ARG105      0.2260
     40  O         56.3580   48.1090   61.9250 O.2   105  ARG105     -0.2867
     41  CB        58.8980   49.1230   63.3300 C.3   105  ARG105      0.0307
     42  CG        59.6220   49.6770   62.0930 C.3   105  ARG105      0.0489
     43  CD        61.1140   49.3600   62.0970 C.3   105  ARG105      0.2205
     44  NE        61.8600   50.2440   62.9870 N.pl3 105  ARG105     -0.0865
     45  CZ        63.1850   50.3590   62.9840 C.cat 105  ARG105      0.5346
     46  NH1       63.9140   49.6390   62.1370 N.pl3 105  ARG105      0.1354
     47  NH2       63.7800   51.2030   63.8220 N.pl3 105  ARG105      0.1354
     48  N         60.6430   58.6140   64.7150 N.3   134  HIS134     -0.1241
     49  CA        61.4230   57.5530   65.3350 C.3   134  HIS134      0.1621
     50  C         61.7680   58.0730   66.7320 C.2   134  HIS134      0.2264
     51  O         62.9330   58.3140   67.0540 O.2   134  HIS134     -0.2867
     52  CB        62.6980   57.2810   64.5380 C.3   134  HIS134      0.0745
     53  CG        63.3050   55.9450   64.8230 C.ar  134  HIS134      0.0817
     54  ND1       63.0040   55.2180   65.9570 N.ar  134  HIS134     -0.2268
     55  CD2       64.2290   55.2210   64.1480 C.ar  134  HIS134      0.1154
     56  CE1       63.7180   54.1070   65.9690 C.ar  134  HIS134      0.1986
     57  NE2       64.4700   54.0850   64.8830 N.ar  134  HIS134     -0.2212
     58  N         64.4120   56.5300   69.0620 N.3   137  GLN137     -0.1245
     59  CA        65.7770   56.7090   68.5830 C.3   137  GLN137      0.1566
     60  C         66.2560   58.0190   69.1960 C.2   137  GLN137      0.2260
     61  O         67.3360   58.0890   69.7740 O.2   137  GLN137     -0.2867
     62  CB        65.8390   56.8000   67.0550 C.3   137  GLN137      0.0367
     63  CG        67.2650   57.0220   66.5050 C.3   137  GLN137      0.0905
     64  CD        68.1510   55.7740   66.5780 C.2   137  GLN137      0.2608
     65  OE1       67.7860   54.7130   66.0790 O.2   137  GLN137     -0.2717
     66  NE2       69.3190   55.9070   67.1920 N.am  137  GLN137     -0.0878
     67  N         65.0870   60.4330   56.5200 N.3   166  GLY166     -0.1210
     68  CA        65.5430   60.0280   57.8350 C.3   166  GLY166      0.1956
     69  C         64.5880   60.3680   58.9660 C.2   166  GLY166      0.2612
     70  O         64.5740   61.4990   59.4580 O.2   166  GLY166     -0.2717
     71  N         63.7830   59.3950   59.3890 N.am  167  ARG167     -0.1965
     72  CA        62.8500   59.6200   60.4880 C.3   167  ARG167      0.1729
     73  C         63.6640   59.8770   61.7620 C.2   167  ARG167      0.2616
     74  O         63.1690   60.4550   62.7350 O.2   167  ARG167     -0.2715
     75  CB        61.9310   58.4050   60.6600 C.3   167  ARG167      0.0348
     76  CG        62.6620   57.0760   60.6860 C.3   167  ARG167      0.0492
     77  CD        61.6840   55.8990   60.7720 C.3   167  ARG167      0.2205
     78  NE        62.3590   54.6060   60.6490 N.pl3 167  ARG167     -0.0865
     79  CZ        61.7350   53.4470   60.4500 C.cat 167  ARG167      0.5346
     80  NH1       60.4130   53.4020   60.3480 N.pl3 167  ARG167      0.1354
     81  NH2       62.4380   52.3270   60.3580 N.pl3 167  ARG167      0.1354
     82  N         64.9250   59.4490   61.7350 N.am  168  THR168     -0.1951
     83  CA        65.8350   59.6350   62.8590 C.3   168  THR168      0.1897
     84  C         66.1080   61.1150   63.1060 C.2   168  THR168      0.2313
     85  O         65.9700   61.6040   64.2320 O.2   168  THR168     -0.2863
     86  CB        67.1770   58.9580   62.6020 C.3   168  THR168      0.1794
     87  OG1       67.6830   59.3830   61.3280 O.3   168  THR168     -0.2208
     88  CG2       67.0230   57.4530   62.6300 C.3   168  THR168      0.0378
     89  N         74.0170   59.6420   58.7150 N.3   228  THR228     -0.1203
     90  CA        72.8770   58.7840   58.4160 C.3   228  THR228      0.1994
     91  C         73.0480   58.0060   57.1190 C.2   228  THR228      0.2617
     92  O         73.8330   58.3760   56.2390 O.2   228  THR228     -0.2717
     93  CB        71.5570   59.5670   58.3030 C.3   228  THR228      0.1784
     94  OG1       71.5730   60.3540   57.1060 O.3   228  THR228     -0.2211
     95  CG2       71.3530   60.4500   59.5150 C.3   228  THR228      0.0376
     96  N         72.2880   56.9240   57.0190 N.am  229  ARG229     -0.1979
     97  CA        72.3030   56.0440   55.8620 C.3   229  ARG229      0.1597
     98  C         71.2780   56.5330   54.8560 C.2   229  ARG229      0.2287
     99  O         70.2660   57.1190   55.2380 O.2   229  ARG229     -0.2864
    100  CB        71.9470   54.6240   56.3160 C.3   229  ARG229      0.0334
    101  CG        71.6730   53.6200   55.2120 C.3   229  ARG229      0.0492
    102  CD        71.2230   52.2960   55.8200 C.3   229  ARG229      0.2205
    103  NE        69.8660   52.3660   56.3650 N.pl3 229  ARG229     -0.0865
    104  CZ        68.7660   52.2260   55.6340 C.cat 229  ARG229      0.5346
    105  NH1       68.8650   52.0010   54.3360 N.pl3 229  ARG229      0.1354
    106  NH2       67.5720   52.3100   56.1920 N.pl3 229  ARG229      0.1354
    107  N         68.2420   56.1230   52.8590 N.3   231  GLN231     -0.1245
    108  CA        67.0980   55.2240   52.9920 C.3   231  GLN231      0.1566
    109  C         66.5970   54.7350   51.6350 C.2   231  GLN231      0.2260
    110  O         65.4980   55.0890   51.1990 O.2   231  GLN231     -0.2867
    111  CB        65.9760   55.9460   53.7400 C.3   231  GLN231      0.0367
    112  CG        66.4430   56.6720   55.0090 C.3   231  GLN231      0.0905
    113  CD        66.8080   55.7230   56.1490 C.2   231  GLN231      0.2608
    114  OE1       65.9340   55.1380   56.7840 O.2   231  GLN231     -0.2717
    115  NE2       68.1060   55.5670   56.4050 N.am  231  GLN231     -0.0878
    116  N         63.0370   53.7620   50.7850 N.3   234  ARG234     -0.1245
    117  CA        62.0180   54.7890   50.6990 C.3   234  ARG234      0.1563
    118  C         62.1380   55.6920   49.4860 C.2   234  ARG234      0.2260
    119  O         61.1920   56.4000   49.1380 O.2   234  ARG234     -0.2867
    120  CB        62.0330   55.6030   52.0010 C.3   234  ARG234      0.0307
    121  CG        61.9780   54.6950   53.2360 C.3   234  ARG234      0.0489
    122  CD        62.0080   55.4390   54.5510 C.3   234  ARG234      0.2205
    123  NE        62.3870   54.5750   55.6750 N.pl3 234  ARG234     -0.0865
    124  CZ        61.6770   53.5360   56.1060 C.cat 234  ARG234      0.5346
    125  NH1       60.5350   53.2100   55.5170 N.pl3 234  ARG234      0.1354
    126  NH2       62.1120   52.8210   57.1310 N.pl3 234  ARG234      0.1354
    127  N         75.5350   57.7020   64.8440 N.3   265  HIS265     -0.1227
    128  CA        74.8910   57.1440   63.6610 C.3   265  HIS265      0.1737
    129  C         73.8320   56.1490   64.1460 C.2   265  HIS265      0.2438
    130  O         74.1480   55.1910   64.8530 O.2   265  HIS265     -0.2733
    131  CB        75.9110   56.4320   62.7810 C.3   265  HIS265      0.0758
    132  CG        75.3820   56.0490   61.4350 C.ar  265  HIS265      0.0818
    133  ND1       74.2320   55.3080   61.2700 N.ar  265  HIS265     -0.2268
    134  CD2       75.8390   56.3150   60.1870 C.ar  265  HIS265      0.1154
    135  CE1       74.0020   55.1350   59.9800 C.ar  265  HIS265      0.1986
    136  NE2       74.9630   55.7360   59.3000 N.ar  265  HIS265     -0.2212
    137  N         72.5620   56.3640   63.7670 N.am  266  PRO266     -0.2718
    138  CA        71.4560   55.4910   64.1700 C.3   266  PRO266      0.1535
    139  C         71.7460   54.0420   63.8080 C.2   266  PRO266      0.2598
    140  O         71.2890   53.1190   64.4920 O.2   266  PRO266     -0.2715
    141  CB        70.2710   56.0190   63.3620 C.3   266  PRO266      0.0310
    142  CG        70.6790   57.4020   62.9560 C.3   266  PRO266      0.0237
    143  CD        72.1370   57.2700   62.6870 C.3   266  PRO266      0.0939
    144  N         72.4890   53.8690   62.7120 N.am  267  LEU267     -0.1964
    145  CA        72.8550   52.5570   62.1740 C.3   267  LEU267      0.1713
    146  C         71.6320   51.9160   61.5280 C.2   267  LEU267      0.2458
    147  O         70.5050   52.2610   61.8590 O.2   267  LEU267     -0.2730
    148  CB        73.4080   51.6460   63.2750 C.3   267  LEU267      0.0310
    149  CG        74.6920   52.1500   63.9410 C.3   267  LEU267      0.0022
    150  CD1       75.1830   51.1060   64.9250 C.3   267  LEU267      0.0001
    151  CD2       75.7700   52.4340   62.8790 C.3   267  LEU267      0.0001
    152  N         71.8350   50.9940   60.5760 N.am  268  PRO268     -0.2727
    153  CA        73.1140   50.5010   60.0520 C.3   268  PRO268      0.1402
    154  C         73.7740   51.5650   59.1980 C.2   268  PRO268      0.2269
    155  O         73.1130   52.4720   58.7000 O.2   268  PRO268     -0.2865
    156  CB        72.7200   49.3140   59.1730 C.3   268  PRO268      0.0296
    157  CG        71.2450   49.0890   59.4400 C.3   268  PRO268      0.0237
    158  CD        70.7120   50.4300   59.8180 C.3   268  PRO268      0.0939
@<TRIPOS>BOND
     1   119   118    2
     2   118   117    1
     3   117   116    1
     4   117   120    1
     5   110   109    2
     6   109   108    1
     7   120   121    1
     8   107   108    1
     9   108   111    1
    10   121   122    1
    11   111   112    1
    12   105   104    1
    13   122   123    1
    14    98    99    2
    15    98    97    1
    16   112   113    1
    17   101   102    1
    18   101   100    1
    19   125   124    1
    20   104   106    1
    21   104   103    2
    22   123   124    2
    23   102   103    1
    24    97   100    1
    25    97    96    1
    26   124   126    1
    27   113   115   am
    28   113   114    2
    29    92    91    2
    30    67    68    1
    31    96    91   am
    32    94    93    1
    33    91    90    1
    34    68    69    1
    35     5     2    1
    36    93    90    1
    37    93    95    1
    38    90    89    1
    39     1     2    1
    40   155   154    2
    41    69    71   am
    42    69    70    2
    43     2     3    1
    44   156   157    1
    45   156   153    1
    46   154   153    1
    47   136   135   ar
    48   136   134   ar
    49    71    72    1
    50   157   158    1
    51   158   152    1
    52   135   133   ar
    53   153   152    1
    54   134   132   ar
    55     3     4    2
    56     3     6   am
    57    80    79    1
    58    81    79    1
    59    79    78    2
    60    72    75    1
    61    72    73    1
    62   152   146   am
    63    78    77    1
    64    75    76    1
    65    76    77    1
    66     6     7    1
    67   133   132   ar
    68    87    86    1
    69   132   131    1
    70   146   147    2
    71   146   145    1
    72    82    73   am
    73    82    83    1
    74    73    74    2
    75    40    39    2
    76    42    43    1
    77    42    41    1
    78    43    44    1
    79    46    45    1
    80    39    38    1
    81     7     8    1
    82     7    10    1
    83   145   144    1
    84   145   148    1
    85    29    27    1
    86    17    16    1
    87    86    88    1
    88    86    83    1
    89   143   142    1
    90   143   137    1
    91   144   139   am
    92   131   128    1
    93    83    84    1
    94   151   149    1
    95   142   141    1
    96     8     9    2
    97     8    12   am
    98    45    44    2
    99    45    47    1
   100    10    11    1
   101    84    85    2
   102   148   149    1
   103    41    38    1
   104   141   138    1
   105    38    37    1
   106    12    13    1
   107    27    28    1
   108    27    26    2
   109   128   129    1
   110   128   127    1
   111   137   129   am
   112   137   138    1
   113    16    13    1
   114    16    18    1
   115   139   138    1
   116   139   140    2
   117   149   150    1
   118   129   130    2
   119    55    53   ar
   120    55    57   ar
   121    13    14    1
   122    26    25    1
   123    52    53    1
   124    52    49    1
   125    48    49    1
   126    53    54   ar
   127    57    56   ar
   128    49    50    1
   129    25    24    1
   130    14    19   am
   131    14    15    2
   132    19    20    1
   133    54    56   ar
   134    65    64    2
   135    35    34    1
   136    63    64    1
   137    63    62    1
   138    64    66   am
   139    34    36    1
   140    34    31    1
   141    50    51    2
   142    24    23    1
   143    23    20    1
   144    30    31    1
   145    30    21   am
   146    20    21    1
   147    62    59    1
   148    31    32    1
   149    21    22    2
   150    32    33    2
   151    59    58    1
   152    59    60    1
   153    60    61    2
