@<TRIPOS>MOLECULE
tmp/2h3hA00.pdb
 133 129 0 0 0
SMALL
GASTEIGER

@<TRIPOS>ATOM
      1  N         -1.9660   -7.5440   52.9510 N.3     9  LYS9       -0.1231
      2  CA        -3.1370   -7.5780   52.0550 C.3     9  LYS9        0.1693
      3  C         -2.8730   -8.0220   50.6020 C.2     9  LYS9        0.2592
      4  O         -3.7610   -8.5410   49.9450 O.2     9  LYS9       -0.2718
      5  CB        -3.8890   -6.2270   52.0820 C.3     9  LYS9        0.0285
      6  CG        -4.5570   -5.9640   53.4420 C.3     9  LYS9        0.0035
      7  CD        -4.8430   -4.4950   53.7090 C.3     9  LYS9        0.0206
      8  CE        -5.9480   -3.8950   52.8770 C.3     9  LYS9        0.1093
      9  NZ        -5.4860   -3.4680   51.5270 N.3     9  LYS9       -0.1314
     10  N         -1.6610   -7.8210   50.1150 N.am   10  SER10      -0.1952
     11  CA        -1.3200   -8.2090   48.7340 C.3    10  SER10       0.1924
     12  C          0.2010   -8.2760   48.5640 C.2    10  SER10       0.2314
     13  O          0.9350   -7.8570   49.4250 O.2    10  SER10      -0.2863
     14  CB        -1.8940   -7.2100   47.7380 C.3    10  SER10       0.2116
     15  OG        -1.2300   -5.9650   47.8210 O.3    10  SER10      -0.2180
     16  N          2.1690   -6.5260   46.7340 N.3    12  HIS12      -0.1241
     17  CA         2.8450   -5.2690   46.3600 C.3    12  HIS12       0.1621
     18  C          4.1660   -4.9750   47.1340 C.2    12  HIS12       0.2264
     19  O          4.2790   -5.2980   48.3360 O.2    12  HIS12      -0.2867
     20  CB         1.8900   -4.0950   46.5380 C.3    12  HIS12       0.0745
     21  CG         2.3040   -2.8850   45.7760 C.ar   12  HIS12       0.0817
     22  ND1        3.1450   -1.9330   46.2990 N.ar   12  HIS12      -0.2268
     23  CD2        2.0440   -2.4990   44.5090 C.ar   12  HIS12       0.1154
     24  CE1        3.3800   -1.0090   45.3900 C.ar   12  HIS12       0.1986
     25  NE2        2.7180   -1.3220   44.2980 N.ar   12  HIS12      -0.2212
     26  N          5.0480   -2.3910   48.5370 N.3    14  TYR14      -0.1227
     27  CA         4.5740   -1.8250   49.8040 C.3    14  TYR14       0.1736
     28  C          4.6130   -2.8170   50.9530 C.2    14  TYR14       0.2595
     29  O          5.0340   -2.4620   52.0490 O.2    14  TYR14      -0.2718
     30  CB         3.1390   -1.2830   49.6290 C.3    14  TYR14       0.0548
     31  CG         2.5510   -0.6680   50.8650 C.ar   14  TYR14      -0.0200
     32  CD1        2.7030    0.7010   51.1190 C.ar   14  TYR14      -0.0009
     33  CD2        1.8310   -1.4370   51.7690 C.ar   14  TYR14      -0.0009
     34  CE1        2.1990    1.2580   52.2750 C.ar   14  TYR14       0.0417
     35  CE2        1.3100   -0.8830   52.9160 C.ar   14  TYR14       0.0417
     36  CZ         1.4610    0.4650   53.1420 C.ar   14  TYR14       0.1957
     37  OH         0.9290    0.9930   54.2880 O.3    14  TYR14      -0.2866
     38  N          4.1370   -4.0490   50.7320 N.am   15  TRP15      -0.1976
     39  CA         4.1200   -5.0180   51.8000 C.3    15  TRP15       0.1640
     40  C          5.5070   -5.5940   52.1110 C.2    15  TRP15       0.2290
     41  O          5.7720   -6.0200   53.2350 O.2    15  TRP15      -0.2864
     42  CB         3.0570   -6.0880   51.5270 C.3    15  TRP15       0.0576
     43  CG         1.7390   -5.4990   51.7850 C.ar   15  TRP15       0.0006
     44  CD1        0.8360   -5.0570   50.8770 C.ar   15  TRP15       0.0946
     45  CD2        1.2180   -5.1700   53.0750 C.ar   15  TRP15       0.0152
     46  NE1       -0.2690   -4.5310   51.5070 N.ar   15  TRP15      -0.2442
     47  CE2       -0.0630   -4.5780   52.8660 C.ar   15  TRP15       0.0810
     48  CE3        1.6710   -5.3860   54.3740 C.ar   15  TRP15       0.0012
     49  CZ2       -0.8660   -4.1650   53.9160 C.ar   15  TRP15       0.0191
     50  CZ3        0.8740   -4.9740   55.4190 C.ar   15  TRP15       0.0001
     51  CH2       -0.3870   -4.3660   55.1760 C.ar   15  TRP15       0.0015
     52  N         -1.9800   -0.7700   59.1220 N.3    89  ASP89      -0.1239
     53  CA        -2.2660   -0.3110   57.7700 C.3    89  ASP89       0.1674
     54  C         -3.7640    0.0170   57.5480 C.2    89  ASP89       0.2266
     55  O         -4.0890    0.9990   56.8740 O.2    89  ASP89      -0.2867
     56  CB        -1.7650   -1.3430   56.7810 C.3    89  ASP89       0.1410
     57  CG        -2.1320   -1.0380   55.3430 C.2    89  ASP89       0.3668
     58  OD1       -1.4690   -0.1790   54.7290 O.co2  89  ASP89      -0.2456
     59  OD2       -3.0550   -1.6880   54.8370 O.co2  89  ASP89      -0.2456
     60  N         -9.2090    1.4490   55.2420 N.3   137  ASN137     -0.1240
     61  CA        -8.2780    2.4690   54.7930 C.3   137  ASN137      0.1653
     62  C         -8.6880    3.0670   53.4440 C.2   137  ASN137      0.2266
     63  O         -8.6460    4.2740   53.2680 O.2   137  ASN137     -0.2867
     64  CB        -6.8090    1.9910   54.8290 C.3   137  ASN137      0.1155
     65  CG        -6.4780    0.8790   53.8490 C.2   137  ASN137      0.2627
     66  OD1       -7.3280    0.0870   53.3990 O.2   137  ASN137     -0.2716
     67  ND2       -5.1730    0.7580   53.5720 N.am  137  ASN137     -0.0877
     68  N         -9.9180    6.8980   52.9450 N.3   141  ARG141     -0.1245
     69  CA        -9.2160    7.7640   52.0070 C.3   141  ARG141      0.1563
     70  C        -10.1980    8.3780   50.9990 C.2   141  ARG141      0.2260
     71  O        -10.1220    9.5600   50.6850 O.2   141  ARG141     -0.2867
     72  CB        -8.0810    7.0280   51.2840 C.3   141  ARG141      0.0307
     73  CG        -6.9070    6.6780   52.1900 C.3   141  ARG141      0.0489
     74  CD        -5.9050    5.7760   51.5290 C.3   141  ARG141      0.2205
     75  NE        -5.0920    5.1260   52.5570 N.pl3 141  ARG141     -0.0865
     76  CZ        -4.1650    4.2030   52.3210 C.cat 141  ARG141      0.5346
     77  NH1       -3.8730    3.8320   51.0750 N.pl3 141  ARG141      0.1354
     78  NH2       -3.5250    3.6650   53.3380 N.pl3 141  ARG141      0.1354
     79  N         -6.5110   -5.0160   44.2360 N.3   164  GLU164     -0.1245
     80  CA        -5.0600   -5.1420   44.4330 C.3   164  GLU164      0.1567
     81  C         -4.4130   -6.0890   43.4230 C.2   164  GLU164      0.2260
     82  O         -3.6410   -6.9790   43.7750 O.2   164  GLU164     -0.2867
     83  CB        -4.7200   -5.5120   45.8950 C.3   164  GLU164      0.0388
     84  CG        -5.3570   -4.5710   46.9080 C.3   164  GLU164      0.1160
     85  CD        -4.6760   -4.5850   48.2490 C.2   164  GLU164      0.3649
     86  OE1       -3.4510   -4.3160   48.3030 O.co2 164  GLU164     -0.2457
     87  OE2       -5.3550   -4.8780   49.2670 O.co2 164  GLU164     -0.2457
     88  N         -4.5260    3.1730   46.5570 N.3   190  TYR190     -0.1227
     89  CA        -3.5700    2.1520   46.9800 C.3   190  TYR190      0.1736
     90  C         -2.2860    2.2590   46.1360 C.2   190  TYR190      0.2595
     91  O         -2.2460    2.9720   45.1240 O.2   190  TYR190     -0.2718
     92  CB        -4.1810    0.7570   46.8160 C.3   190  TYR190      0.0548
     93  CG        -5.0970    0.2790   47.9160 C.ar  190  TYR190     -0.0200
     94  CD1       -5.3310    1.0430   49.0530 C.ar  190  TYR190     -0.0009
     95  CD2       -5.6470   -1.0080   47.8780 C.ar  190  TYR190     -0.0009
     96  CE1       -6.1260    0.5800   50.0650 C.ar  190  TYR190      0.0417
     97  CE2       -6.4440   -1.4870   48.9090 C.ar  190  TYR190      0.0417
     98  CZ        -6.6800   -0.6830   50.0000 C.ar  190  TYR190      0.1957
     99  OH        -7.4280   -1.1430   51.0600 O.3   190  TYR190     -0.2866
    100  N         -1.2570    1.5200   46.5330 N.am  191  ALA191     -0.1966
    101  CA         0.0630    1.6270   45.9170 C.3   191  ALA191      0.1728
    102  C          0.0590    1.2380   44.4380 C.2   191  ALA191      0.2616
    103  O          0.8780    1.7430   43.6790 O.2   191  ALA191     -0.2715
    104  CB         1.0600    0.7960   46.6660 C.3   191  ALA191      0.0334
    105  N         -0.8260    0.3190   44.0530 N.am  192  TYR192     -0.1974
    106  CA        -0.9460   -0.0760   42.6360 C.3   192  TYR192      0.1639
    107  C         -1.4740    1.0540   41.7340 C.2   192  TYR192      0.2290
    108  O         -1.2120    1.0640   40.5220 O.2   192  TYR192     -0.2864
    109  CB        -1.8870   -1.2850   42.4680 C.3   192  TYR192      0.0560
    110  CG        -1.2960   -2.6360   42.8550 C.ar  192  TYR192     -0.0198
    111  CD1       -0.4340   -3.3080   41.9940 C.ar  192  TYR192     -0.0009
    112  CD2       -1.6130   -3.2430   44.0730 C.ar  192  TYR192     -0.0009
    113  CE1        0.1010   -4.5490   42.3300 C.ar  192  TYR192      0.0417
    114  CE2       -1.0650   -4.4740   44.4250 C.ar  192  TYR192      0.0417
    115  CZ        -0.2100   -5.1210   43.5460 C.ar  192  TYR192      0.1957
    116  OH         0.3430   -6.3450   43.8700 O.3   192  TYR192     -0.2866
    117  N          1.4470    6.5670   48.4680 N.3   216  ASP216     -0.1239
    118  CA         2.6610    5.7550   48.6260 C.3   216  ASP216      0.1674
    119  C          3.8700    6.2940   47.8540 C.2   216  ASP216      0.2266
    120  O          3.7620    7.2250   47.0400 O.2   216  ASP216     -0.2867
    121  CB         2.3730    4.2700   48.3590 C.3   216  ASP216      0.1410
    122  CG         1.2590    3.7460   49.2300 C.2   216  ASP216      0.3668
    123  OD1        1.3680    3.9920   50.4560 O.co2 216  ASP216     -0.2456
    124  OD2        0.2630    3.1630   48.7110 O.co2 216  ASP216     -0.2456
    125  N          3.0710    7.0070   53.0400 N.3   236  GLN236     -0.1245
    126  CA         2.9430    6.4090   54.3650 C.3   236  GLN236      0.1566
    127  C          4.3130    5.9530   54.9180 C.2   236  GLN236      0.2260
    128  O          5.3770    6.1710   54.2960 O.2   236  GLN236     -0.2867
    129  CB         1.9530    5.2290   54.2790 C.3   236  GLN236      0.0367
    130  CG         0.6240    5.5290   53.6150 C.3   236  GLN236      0.0905
    131  CD        -0.3170    4.3420   53.7590 C.2   236  GLN236      0.2608
    132  OE1       -0.8710    4.1130   54.8420 O.2   236  GLN236     -0.2717
    133  NE2       -0.4180    3.5270   52.7120 N.am  236  GLN236     -0.0878
@<TRIPOS>BOND
     1   108   107    2
     2   107   106    1
     3   111   113   ar
     4   111   110   ar
     5   113   115   ar
     6   109   106    1
     7   109   110    1
     8   106   105    1
     9   110   112   ar
    10    81    82    2
    11    81    80    1
    12   115   116    1
    13   115   114   ar
    14   103   102    2
    15   105   102   am
    16   112   114   ar
    17    79    80    1
    18    25    23   ar
    19    25    24   ar
    20    80    83    1
    21   102   101    1
    22    23    21   ar
    23    91    90    2
    24    24    22   ar
    25    21    22   ar
    26    21    20    1
    27    83    84    1
    28   101   100    1
    29   101   104    1
    30    90   100   am
    31    90    89    1
    32    17    20    1
    33    17    16    1
    34    17    18    1
    35    88    89    1
    36    92    89    1
    37    92    93    1
    38    84    85    1
    39   120   119    2
    40    18    19    2
    41    14    15    1
    42    14    11    1
    43   119   118    1
    44    95    93   ar
    45    95    97   ar
    46    93    94   ar
    47    85    86   ar
    48    85    87   ar
    49   121   118    1
    50   121   122    1
    51   117   118    1
    52    26    27    1
    53    12    11    1
    54    12    13    2
    55   124   122   ar
    56    11    10    1
    57    97    98   ar
    58    94    96   ar
    59   122   123   ar
    60    30    27    1
    61    30    31    1
    62    27    28    1
    63     4     3    2
    64    98    96   ar
    65    98    99    1
    66    10     3   am
    67     3     2    1
    68    71    70    2
    69    38    28   am
    70    38    39    1
    71    31    32   ar
    72    31    33   ar
    73    44    46   ar
    74    44    43   ar
    75    28    29    2
    76    70    69    1
    77    77    76    1
    78    32    34   ar
    79    72    69    1
    80    72    73    1
    81    46    47   ar
    82     9     8    1
    83    42    43    1
    84    42    39    1
    85    74    73    1
    86    74    75    1
    87    33    35   ar
    88    43    45   ar
    89    39    40    1
    90    69    68    1
    91     2     5    1
    92     2     1    1
    93     5     6    1
    94    40    41    2
    95    34    36   ar
    96    76    75    2
    97    76    78    1
    98   133   131   am
    99    47    45   ar
   100    47    49   ar
   101     8     7    1
   102    35    36   ar
   103   125   126    1
   104    45    48   ar
   105    36    37    1
   106    63    62    2
   107    66    65    2
   108     6     7    1
   109    62    61    1
   110    67    65   am
   111   130   131    1
   112   130   129    1
   113   131   132    2
   114    65    64    1
   115    49    51   ar
   116   129   126    1
   117   128   127    2
   118   126   127    1
   119    48    50   ar
   120    58    57   ar
   121    61    64    1
   122    61    60    1
   123    59    57   ar
   124    51    50   ar
   125    57    56    1
   126    56    53    1
   127    55    54    2
   128    54    53    1
   129    53    52    1
