@<TRIPOS>MOLECULE
tmp/2h3qA00.pdb
 114 110 0 0 0
SMALL
GASTEIGER

@<TRIPOS>ATOM
      1  N        -12.3430  -13.5280  -12.6120 N.3    20  LEU20      -0.1231
      2  CA       -12.1960  -14.0540  -13.9650 C.3    20  LEU20       0.1693
      3  C        -13.5280  -14.0230  -14.7090 C.2    20  LEU20       0.2591
      4  O        -13.5650  -13.8620  -15.9290 O.2    20  LEU20      -0.2718
      5  CB       -11.6570  -15.4840  -13.9220 C.3    20  LEU20       0.0284
      6  CG       -10.3840  -15.6970  -13.1020 C.3    20  LEU20       0.0019
      7  CD1      -10.1550  -17.1780  -12.8450 C.3    20  LEU20       0.0001
      8  CD2       -9.1840  -15.0850  -13.8110 C.3    20  LEU20       0.0001
      9  N        -14.6190  -14.1760  -13.9650 N.am   21  ARG21      -0.1980
     10  CA       -15.9520  -14.1650  -14.5540 C.3    21  ARG21       0.1597
     11  C        -16.9470  -13.4610  -13.6350 C.2    21  ARG21       0.2287
     12  O        -16.7230  -13.3150  -12.4330 O.2    21  ARG21      -0.2864
     13  CB       -16.4220  -15.5940  -14.8330 C.3    21  ARG21       0.0334
     14  CG       -16.3410  -15.9870  -16.2990 C.3    21  ARG21       0.0492
     15  CD       -16.0980  -17.4790  -16.4630 C.3    21  ARG21       0.2205
     16  NE       -17.3220  -18.2550  -16.2820 N.pl3  21  ARG21      -0.0865
     17  CZ       -18.2660  -18.3660  -17.2100 C.cat  21  ARG21       0.5346
     18  NH1      -18.1270  -17.7530  -18.3780 N.pl3  21  ARG21       0.1354
     19  NH2      -19.3520  -19.0900  -16.9710 N.pl3  21  ARG21       0.1354
     20  N        -13.6980  -17.3380   -8.4470 N.3    26  LYS26      -0.1245
     21  CA       -12.2420  -17.3830   -8.5120 C.3    26  LYS26       0.1561
     22  C        -11.6720  -16.0220   -8.8980 C.2    26  LYS26       0.2260
     23  O        -11.5090  -15.7210  -10.0800 O.2    26  LYS26      -0.2867
     24  CB       -11.7890  -18.4420   -9.5190 C.3    26  LYS26       0.0271
     25  CG       -10.4140  -19.0160   -9.2200 C.3    26  LYS26       0.0035
     26  CD       -10.1920  -20.3350   -9.9420 C.3    26  LYS26       0.0206
     27  CE        -8.7860  -20.4270  -10.5140 C.3    26  LYS26       0.1093
     28  NZ        -8.4120  -21.8300  -10.8440 N.3    26  LYS26      -0.1314
     29  N         -8.9890  -12.8020   -9.3050 N.3    28  TYR28      -0.1241
     30  CA        -7.7580  -12.7440  -10.0840 C.3    28  TYR28       0.1605
     31  C         -6.5340  -12.8080   -9.1760 C.2    28  TYR28       0.2264
     32  O         -6.5720  -12.3600   -8.0290 O.2    28  TYR28      -0.2867
     33  CB        -7.7190  -11.4640  -10.9210 C.3    28  TYR28       0.0534
     34  CG        -8.1310  -11.6690  -12.3610 C.ar   28  TYR28      -0.0201
     35  CD1       -7.2480  -12.2160  -13.2850 C.ar   28  TYR28      -0.0009
     36  CD2       -9.4010  -11.3160  -12.7990 C.ar   28  TYR28      -0.0009
     37  CE1       -7.6190  -12.4050  -14.6020 C.ar   28  TYR28       0.0417
     38  CE2       -9.7810  -11.5020  -14.1140 C.ar   28  TYR28       0.0417
     39  CZ        -8.8870  -12.0470  -15.0120 C.ar   28  TYR28       0.1957
     40  OH        -9.2610  -12.2340  -16.3230 O.3    28  TYR28      -0.2866
     41  N         -0.9570  -15.3990  -10.5720 N.3    31  LYS31      -0.1231
     42  CA        -0.8720  -16.6060  -11.3860 C.3    31  LYS31       0.1693
     43  C         -1.3520  -16.3370  -12.8090 C.2    31  LYS31       0.2592
     44  O         -0.8030  -16.8740  -13.7720 O.2    31  LYS31      -0.2718
     45  CB        -1.7030  -17.7280  -10.7600 C.3    31  LYS31       0.0285
     46  CG        -0.8780  -18.7210   -9.9600 C.3    31  LYS31       0.0035
     47  CD        -1.1770  -18.6250   -8.4730 C.3    31  LYS31       0.0206
     48  CE        -0.0630  -19.2400   -7.6400 C.3    31  LYS31       0.1093
     49  NZ        -0.0610  -20.7260   -7.7280 N.3    31  LYS31      -0.1314
     50  N         -2.3780  -15.5010  -12.9350 N.am   32  HIS32      -0.1976
     51  CA        -2.9310  -15.1590  -14.2410 C.3    32  HIS32       0.1656
     52  C         -2.0430  -14.1440  -14.9560 C.2    32  HIS32       0.2291
     53  O         -1.9540  -14.2360  -16.1810 O.2    32  HIS32      -0.2864
     54  CB        -4.3450  -14.5990  -14.0890 C.3    32  HIS32       0.0771
     55  CG        -5.2170  -15.4120  -13.1830 C.ar   32  HIS32       0.0820
     56  ND1       -5.9850  -14.8580  -12.1800 N.ar   32  HIS32      -0.2267
     57  CD2       -5.4410  -16.7460  -13.1320 C.ar   32  HIS32       0.1154
     58  CE1       -6.6430  -15.8160  -11.5520 C.ar   32  HIS32       0.1986
     59  NE2       -6.3310  -16.9710  -12.1110 N.ar   32  HIS32      -0.2212
     60  N          0.9140  -16.2830  -16.1150 N.3    35  TRP35      -0.1241
     61  CA         0.4620  -17.3030  -17.0540 C.3    35  TRP35       0.1605
     62  C          0.3360  -16.7300  -18.4610 C.2    35  TRP35       0.2264
     63  O          0.5770  -17.4250  -19.4480 O.2    35  TRP35      -0.2867
     64  CB        -0.8810  -17.8820  -16.6030 C.3    35  TRP35       0.0550
     65  CG        -1.4890  -18.8200  -17.6020 C.ar   35  TRP35       0.0003
     66  CD1       -1.4570  -20.1850  -17.5690 C.ar   35  TRP35       0.0946
     67  CD2       -2.2170  -18.4610  -18.7810 C.ar   35  TRP35       0.0152
     68  NE1       -2.1210  -20.6960  -18.6580 N.ar   35  TRP35      -0.2442
     69  CE2       -2.5980  -19.6600  -19.4160 C.ar   35  TRP35       0.0810
     70  CE3       -2.5860  -17.2450  -19.3620 C.ar   35  TRP35       0.0012
     71  CZ2       -3.3280  -19.6750  -20.6010 C.ar   35  TRP35       0.0191
     72  CZ3       -3.3110  -17.2610  -20.5390 C.ar   35  TRP35       0.0001
     73  CH2       -3.6760  -18.4690  -21.1480 C.ar   35  TRP35       0.0015
     74  N         -9.3630  -22.3330  -26.0690 N.3    72  GLU72      -0.1245
     75  CA        -9.2710  -21.8970  -24.6810 C.3    72  GLU72       0.1567
     76  C         -8.0150  -21.0610  -24.4550 C.2    72  GLU72       0.2260
     77  O         -7.9910  -20.1750  -23.6020 O.2    72  GLU72      -0.2867
     78  CB        -9.2690  -23.1050  -23.7420 C.3    72  GLU72       0.0388
     79  CG        -8.2410  -24.1610  -24.1120 C.3    72  GLU72       0.1160
     80  CD        -8.3160  -25.3850  -23.2200 C.2    72  GLU72       0.3649
     81  OE1       -9.4430  -25.8170  -22.8980 O.co2  72  GLU72      -0.2457
     82  OE2       -7.2470  -25.9120  -22.8450 O.co2  72  GLU72      -0.2457
     83  N         -8.9760  -17.4420  -25.7120 N.3    75  ARG75      -0.1231
     84  CA        -9.9540  -16.8540  -24.8050 C.3    75  ARG75       0.1694
     85  C         -9.2930  -16.4250  -23.4980 C.2    75  ARG75       0.2592
     86  O         -9.4970  -15.3060  -23.0260 O.2    75  ARG75      -0.2718
     87  CB       -11.0780  -17.8510  -24.5160 C.3    75  ARG75       0.0321
     88  CG       -12.4540  -17.2120  -24.4400 C.3    75  ARG75       0.0489
     89  CD       -13.5460  -18.2580  -24.2810 C.3    75  ARG75       0.2205
     90  NE       -13.6950  -18.6870  -22.8930 N.pl3  75  ARG75      -0.0865
     91  CZ       -14.2450  -17.9350  -21.9460 C.cat  75  ARG75       0.5346
     92  NH1      -14.6960  -16.7230  -22.2370 N.pl3  75  ARG75       0.1354
     93  NH2      -14.3450  -18.3960  -20.7060 N.pl3  75  ARG75       0.1354
     94  N         -8.5010  -17.3210  -22.9190 N.am   76  SER76      -0.1952
     95  CA        -7.8140  -17.0370  -21.6640 C.3    76  SER76       0.1924
     96  C         -7.0370  -15.7260  -21.7550 C.2    76  SER76       0.2314
     97  O         -7.1460  -14.8650  -20.8820 O.2    76  SER76      -0.2863
     98  CB        -6.8640  -18.1820  -21.3080 C.3    76  SER76       0.2116
     99  OG        -7.5720  -19.2790  -20.7570 O.3    76  SER76      -0.2180
    100  N         -9.0070  -12.6590  -21.8720 N.3    79  ASN79      -0.1225
    101  CA        -9.5860  -12.4580  -20.5480 C.3    79  ASN79       0.1785
    102  C         -8.6370  -11.6650  -19.6550 C.2    79  ASN79       0.2597
    103  O         -8.9980  -10.6120  -19.1280 O.2    79  ASN79      -0.2718
    104  CB        -9.9070  -13.8070  -19.9000 C.3    79  ASN79       0.1169
    105  CG       -11.3940  -14.1030  -19.8890 C.2    79  ASN79       0.2627
    106  OD1      -12.1430  -13.6110  -20.7340 O.2    79  ASN79      -0.2716
    107  ND2      -11.8290  -14.9110  -18.9290 N.am   79  ASN79      -0.0877
    108  N         -7.4220  -12.1770  -19.4880 N.am   80  THR80      -0.1953
    109  CA        -6.4220  -11.5170  -18.6580 C.3    80  THR80       0.1897
    110  C         -6.0370  -10.1600  -19.2350 C.2    80  THR80       0.2313
    111  O         -6.1020   -9.1410  -18.5460 O.2    80  THR80      -0.2863
    112  CB        -5.1530  -12.3790  -18.5150 C.3    80  THR80       0.1794
    113  OG1       -5.5040  -13.6980  -18.0820 O.3    80  THR80      -0.2208
    114  CG2       -4.1840  -11.7550  -17.5230 C.3    80  THR80       0.0378
@<TRIPOS>BOND
     1    74    75    1
     2    83    84    1
     3    84    87    1
     4    84    85    1
     5    75    76    1
     6    75    78    1
     7    87    88    1
     8    76    77    2
     9    88    89    1
    10    89    90    1
    11    79    78    1
    12    79    80    1
    13    85    86    2
    14    85    94   am
    15    80    81   ar
    16    80    82   ar
    17    94    95    1
    18    90    91    2
    19    92    91    1
    20    91    93    1
    21   100   101    1
    22    96    95    1
    23    96    97    2
    24    95    98    1
    25    98    99    1
    26    73    71   ar
    27    73    72   ar
    28   106   105    2
    29    71    69   ar
    30   101   104    1
    31   101   102    1
    32    72    70   ar
    33   104   105    1
    34   105   107   am
    35   102   108   am
    36   102   103    2
    37   108   109    1
    38    63    62    2
    39    69    67   ar
    40    69    68   ar
    41    70    67   ar
    42   110   109    1
    43   110   111    2
    44    67    65   ar
    45    68    66   ar
    46   109   112    1
    47   112   113    1
    48   112   114    1
    49    62    61    1
    50    18    17    1
    51    65    66   ar
    52    65    64    1
    53    17    19    1
    54    17    16    2
    55    61    64    1
    56    61    60    1
    57    15    14    1
    58    15    16    1
    59    40    39    1
    60    14    13    1
    61    53    52    2
    62     4     3    2
    63    39    37   ar
    64    39    38   ar
    65    52    51    1
    66    13    10    1
    67     3     9   am
    68     3     2    1
    69    37    35   ar
    70    10     9    1
    71    10    11    1
    72    51    54    1
    73    51    50    1
    74    38    36   ar
    75    54    55    1
    76     2     5    1
    77     2     1    1
    78     5     6    1
    79     8     6    1
    80    44    43    2
    81    11    12    2
    82    35    34   ar
    83    55    57   ar
    84    55    56   ar
    85    57    59   ar
    86     6     7    1
    87    50    43   am
    88    43    42    1
    89    36    34   ar
    90    34    33    1
    91    56    58   ar
    92    59    58   ar
    93    42    45    1
    94    42    41    1
    95    33    30    1
    96    28    27    1
    97    45    46    1
    98    27    26    1
    99    30    29    1
   100    30    31    1
   101    23    22    2
   102    46    47    1
   103    26    25    1
   104    24    25    1
   105    24    21    1
   106    31    32    2
   107    22    21    1
   108    21    20    1
   109    47    48    1
   110    49    48    1
