@<TRIPOS>MOLECULE
tmp/2h3vA00.pdb
 121 116 0 0 0
SMALL
GASTEIGER

@<TRIPOS>ATOM
      1  N         27.4730  -11.8480   14.4910 N.3    20  LEU20      -0.1231
      2  CA        28.3900  -11.9490   13.3600 C.3    20  LEU20       0.1693
      3  C         29.1310  -13.2820   13.3780 C.2    20  LEU20       0.2591
      4  O         29.4190  -13.8570   12.3280 O.2    20  LEU20      -0.2718
      5  CB        29.3930  -10.7940   13.3870 C.3    20  LEU20       0.0284
      6  CG        28.7980   -9.3920   13.5240 C.3    20  LEU20       0.0019
      7  CD1       29.8780   -8.3890   13.9010 C.3    20  LEU20       0.0001
      8  CD2       28.1090   -8.9760   12.2320 C.3    20  LEU20       0.0001
      9  N         29.4360  -13.7680   14.5770 N.am   21  ARG21      -0.1980
     10  CA        30.1420  -15.0340   14.7310 C.3    21  ARG21       0.1597
     11  C         29.3880  -15.9660   15.6740 C.2    21  ARG21       0.2287
     12  O         28.5560  -15.5390   16.4750 O.2    21  ARG21      -0.2864
     13  CB        31.5570  -14.7910   15.2590 C.3    21  ARG21       0.0334
     14  CG        32.6100  -14.7090   14.1660 C.3    21  ARG21       0.0492
     15  CD        33.8810  -15.4460   14.5600 C.3    21  ARG21       0.2205
     16  NE        34.7680  -14.6140   15.3680 N.pl3  21  ARG21      -0.0865
     17  CZ        35.7620  -15.0990   16.1040 C.cat  21  ARG21       0.5346
     18  NH1       35.9940  -16.4040   16.1330 N.pl3  21  ARG21       0.1354
     19  NH2       36.5260  -14.2780   16.8120 N.pl3  21  ARG21       0.1354
     20  N         29.6110   -9.7380   19.4670 N.3    26  LYS26      -0.1245
     21  CA        29.2120   -8.5740   18.6850 C.3    26  LYS26       0.1561
     22  C         27.9810   -8.8830   17.8390 C.2    26  LYS26       0.2260
     23  O         28.0990   -9.3130   16.6910 O.2    26  LYS26      -0.2867
     24  CB        30.3630   -8.1200   17.7850 C.3    26  LYS26       0.0271
     25  CG        30.3200   -6.6400   17.4440 C.3    26  LYS26       0.0035
     26  CD        31.0350   -6.3490   16.1350 C.3    26  LYS26       0.0206
     27  CE        32.0330   -5.2110   16.2850 C.3    26  LYS26       0.1093
     28  NZ        32.1710   -4.4240   15.0290 N.3    26  LYS26      -0.1314
     29  N         24.4240   -8.3250   15.6450 N.3    28  TYR28      -0.1241
     30  CA        24.2270   -7.6010   14.3940 C.3    28  TYR28       0.1605
     31  C         23.5140   -6.2740   14.6390 C.2    28  TYR28       0.2264
     32  O         22.7230   -6.1430   15.5730 O.2    28  TYR28      -0.2867
     33  CB        23.4220   -8.4510   13.4090 C.3    28  TYR28       0.0534
     34  CG        24.2750   -9.1480   12.3740 C.ar   28  TYR28      -0.0201
     35  CD1       24.7630   -8.4600   11.2700 C.ar   28  TYR28      -0.0009
     36  CD2       24.5920  -10.4950   12.4990 C.ar   28  TYR28      -0.0009
     37  CE1       25.5420   -9.0930   10.3210 C.ar   28  TYR28       0.0417
     38  CE2       25.3720  -11.1360   11.5560 C.ar   28  TYR28       0.0417
     39  CZ        25.8440  -10.4310   10.4680 C.ar   28  TYR28       0.1957
     40  OH        26.6200  -11.0660    9.5260 O.3    28  TYR28      -0.2866
     41  N         24.2830   -0.9440   11.3600 N.3    31  LYS31      -0.1231
     42  CA        25.5900   -0.5660   10.8360 C.3    31  LYS31       0.1693
     43  C         26.0530   -1.5490    9.7660 C.2    31  LYS31       0.2592
     44  O         26.6670   -1.1580    8.7730 O.2    31  LYS31      -0.2718
     45  CB        26.6190   -0.5080   11.9680 C.3    31  LYS31       0.0285
     46  CG        26.9010    0.9000   12.4620 C.3    31  LYS31       0.0035
     47  CD        28.0670    0.9270   13.4360 C.3    31  LYS31       0.0206
     48  CE        27.8090    1.8860   14.5880 C.3    31  LYS31       0.1093
     49  NZ        28.0470    3.3020   14.1940 N.3    31  LYS31      -0.1314
     50  N         25.7520   -2.8280    9.9730 N.am   32  HIS32      -0.1976
     51  CA        26.1350   -3.8680    9.0240 C.3    32  HIS32       0.1656
     52  C         25.2130   -3.8580    7.8080 C.2    32  HIS32       0.2291
     53  O         25.7100   -4.1500    6.7190 O.2    32  HIS32      -0.2864
     54  CB        26.0970   -5.2410    9.6950 C.3    32  HIS32       0.0771
     55  CG        26.7670   -5.2710   11.0350 C.ar   32  HIS32       0.0820
     56  ND1       26.1890   -5.8300   12.1540 N.ar   32  HIS32      -0.2267
     57  CD2       27.9760   -4.8070   11.4300 C.ar   32  HIS32       0.1154
     58  CE1       27.0120   -5.7080   13.1800 C.ar   32  HIS32       0.1986
     59  NE2       28.1040   -5.0910   12.7670 N.ar   32  HIS32      -0.2212
     60  N         26.4470   -0.8250    5.8180 N.3    35  TRP35      -0.1241
     61  CA        27.8250   -1.0310    5.3850 C.3    35  TRP35       0.1605
     62  C         27.8740   -1.8410    4.0940 C.2    35  TRP35       0.2264
     63  O         28.7470   -1.6320    3.2530 O.2    35  TRP35      -0.2867
     64  CB        28.6240   -1.7420    6.4790 C.3    35  TRP35       0.0550
     65  CG        30.0000   -2.1450    6.0420 C.ar   35  TRP35       0.0003
     66  CD1       31.1680   -1.4870    6.3040 C.ar   35  TRP35       0.0946
     67  CD2       30.3500   -3.2950    5.2650 C.ar   35  TRP35       0.0152
     68  NE1       32.2230   -2.1600    5.7360 N.ar   35  TRP35      -0.2442
     69  CE2       31.7480   -3.2730    5.0940 C.ar   35  TRP35       0.0810
     70  CE3       29.6190   -4.3430    4.6990 C.ar   35  TRP35       0.0012
     71  CZ2       32.4260   -4.2570    4.3800 C.ar   35  TRP35       0.0191
     72  CZ3       30.2930   -5.3190    3.9900 C.ar   35  TRP35       0.0001
     73  CH2       31.6850   -5.2710    3.8360 C.ar   35  TRP35       0.0015
     74  N         38.8100   -9.2680    1.7860 N.3    72  GLU72      -0.1245
     75  CA        38.1090   -9.1450    3.0590 C.3    72  GLU72       0.1567
     76  C         36.7150   -8.5560    2.8580 C.2    72  GLU72       0.2260
     77  O         35.7670   -8.9310    3.5480 O.2    72  GLU72      -0.2867
     78  CB        38.9090   -8.2690    4.0250 C.3    72  GLU72       0.0388
     79  CG        39.2600   -6.9030    3.4600 C.3    72  GLU72       0.1160
     80  CD        40.1090   -6.0800    4.4090 C.2    72  GLU72       0.3649
     81  OE1       40.1320   -6.4010    5.6160 O.co2  72  GLU72      -0.2457
     82  OE2       40.7510   -5.1140    3.9450 O.co2  72  GLU72      -0.2457
     83  N         34.2520  -11.2980    1.7080 N.3    75  ARG75      -0.1231
     84  CA        33.8930  -12.1740    2.8170 C.3    75  ARG75       0.1694
     85  C         32.8220  -11.5310    3.6930 C.2    75  ARG75       0.2592
     86  O         31.8090  -12.1540    4.0110 O.2    75  ARG75      -0.2718
     87  CB        35.1280  -12.5000    3.6580 C.3    75  ARG75       0.0321
     88  CG        35.2890  -13.9810    3.9560 C.3    75  ARG75       0.0489
     89  CD        34.6990  -14.3450    5.3100 C.3    75  ARG75       0.2205
     90  NE        35.5700  -13.9450    6.4120 N.pl3  75  ARG75      -0.0865
     91  CZ        36.6790  -14.5960    6.7450 C.cat  75  ARG75       0.5346
     92  NH1       37.0500  -15.6720    6.0650 N.pl3  75  ARG75       0.1354
     93  NH2       37.4200  -14.1700    7.7610 N.pl3  75  ARG75       0.1354
     94  N         33.0540  -10.2800    4.0800 N.am   76  SER76      -0.1952
     95  CA        32.1120   -9.5540    4.9230 C.3    76  SER76       0.1924
     96  C         30.7340   -9.4930    4.2700 C.2    76  SER76       0.2314
     97  O         29.7090   -9.6230    4.9410 O.2    76  SER76      -0.2863
     98  CB        32.6240   -8.1380    5.1940 C.3    76  SER76       0.2116
     99  OG        33.5040   -7.7090    4.1690 O.3    76  SER76      -0.2180
    100  N         28.7580  -12.6350    4.3740 N.3    79  ASN79      -0.1225
    101  CA        28.3210  -12.8210    5.7530 C.3    79  ASN79       0.1785
    102  C         27.0180  -12.0730    6.0160 C.2    79  ASN79       0.2597
    103  O         26.0150  -12.6690    6.4110 O.2    79  ASN79      -0.2718
    104  CB        29.4040  -12.3400    6.7210 C.3    79  ASN79       0.1169
    105  CG        30.6810  -13.1490    6.6090 C.2    79  ASN79       0.2627
    106  OD1       30.6510  -14.3370    6.2880 O.2    79  ASN79      -0.2716
    107  ND2       31.8130  -12.5070    6.8740 N.am   79  ASN79      -0.0877
    108  N         27.0390  -10.7630    5.7950 N.am   80  THR80      -0.1953
    109  CA        25.8600   -9.9320    6.0080 C.3    80  THR80       0.1897
    110  C         24.7090  -10.3700    5.1100 C.2    80  THR80       0.2313
    111  O         23.5950  -10.5990    5.5800 O.2    80  THR80      -0.2863
    112  CB        26.1650   -8.4460    5.7460 C.3    80  THR80       0.1794
    113  OG1       27.3710   -8.0670    6.4190 O.3    80  THR80      -0.2208
    114  CG2       25.0170   -7.5660    6.2180 C.3    80  THR80       0.0378
    115  N         26.2090  -15.8550   11.8290 N.3    96  THR96      -0.1218
    116  CA        26.5350  -15.7900   10.4100 C.3    96  THR96       0.1862
    117  C         27.0110  -17.1420    9.8930 C.2    96  THR96       0.2287
    118  O         26.6850  -17.5410    8.7740 O.2    96  THR96      -0.2866
    119  CB        27.6210  -14.7340   10.1310 C.3    96  THR96       0.1770
    120  OG1       27.2520  -13.4830   10.7220 O.3    96  THR96      -0.2211
    121  CG2       27.8270  -14.5530    8.6350 C.3    96  THR96       0.0375
@<TRIPOS>BOND
     1    83    84    1
     2    74    75    1
     3    84    87    1
     4    84    85    1
     5    76    75    1
     6    76    77    2
     7    75    78    1
     8    63    62    2
     9    79    78    1
    10    79    80    1
    11    87    88    1
    12    85    86    2
    13    85    94   am
    14    73    72   ar
    15    73    71   ar
    16    82    80   ar
    17    88    89    1
    18    72    70   ar
    19    94    95    1
    20    62    61    1
    21    99    98    1
    22    96    95    1
    23    96    97    2
    24   100   101    1
    25    71    69   ar
    26    80    81   ar
    27    70    67   ar
    28    95    98    1
    29    69    67   ar
    30    69    68   ar
    31   110   111    2
    32   110   109    1
    33    67    65   ar
    34    89    90    1
    35    61    60    1
    36    61    64    1
    37    68    66   ar
    38   112   109    1
    39   112   114    1
    40   112   113    1
    41   101   102    1
    42   101   104    1
    43   108   109    1
    44   108   102   am
    45   102   103    2
    46    65    66   ar
    47    65    64    1
    48    92    91    1
    49   106   105    2
    50    90    91    2
    51   105   104    1
    52   105   107   am
    53    53    52    2
    54    91    93    1
    55    52    51    1
    56   121   119    1
    57    44    43    2
    58   118   117    2
    59    51    54    1
    60    51    50    1
    61    40    39    1
    62    54    55    1
    63    43    50   am
    64    43    42    1
    65   117   116    1
    66   119   116    1
    67   119   120    1
    68    37    39   ar
    69    37    35   ar
    70   116   115    1
    71    39    38   ar
    72    42    41    1
    73    42    45    1
    74    55    57   ar
    75    55    56   ar
    76    35    34   ar
    77    57    59   ar
    78    38    36   ar
    79    45    46    1
    80    56    58   ar
    81     8     6    1
    82     4     3    2
    83    34    36   ar
    84    34    33    1
    85    46    47    1
    86    59    58   ar
    87     2     3    1
    88     2     5    1
    89     2     1    1
    90     3     9   am
    91     5     6    1
    92    33    30    1
    93    47    48    1
    94     6     7    1
    95    14    15    1
    96    14    13    1
    97    49    48    1
    98    30    31    1
    99    30    29    1
   100    15    16    1
   101     9    10    1
   102    31    32    2
   103    10    13    1
   104    10    11    1
   105    28    27    1
   106    16    17    2
   107    11    12    2
   108    17    18    1
   109    17    19    1
   110    26    27    1
   111    26    25    1
   112    23    22    2
   113    25    24    1
   114    24    21    1
   115    22    21    1
   116    21    20    1
