@<TRIPOS>MOLECULE
tmp/2h3wB01.pdb
 189 182 0 0 0
SMALL
GASTEIGER

@<TRIPOS>ATOM
      1  N        -15.7400   -2.1890   56.7070 N.3    76  TRP76      -0.1241
      2  CA       -15.4120   -2.4640   55.3110 C.3    76  TRP76       0.1605
      3  C        -14.0810   -1.8590   54.8770 C.2    76  TRP76       0.2264
      4  O        -13.2410   -2.5410   54.2800 O.2    76  TRP76      -0.2867
      5  CB       -16.5220   -1.9490   54.3880 C.3    76  TRP76       0.0550
      6  CG       -16.2710   -2.2790   52.9440 C.ar   76  TRP76       0.0003
      7  CD1      -16.0670   -1.4000   51.9270 C.ar   76  TRP76       0.0946
      8  CD2      -16.2090   -3.5910   52.3660 C.ar   76  TRP76       0.0152
      9  NE1      -15.8840   -2.0800   50.7390 N.ar   76  TRP76      -0.2442
     10  CE2      -15.9680   -3.4270   50.9820 C.ar   76  TRP76       0.0810
     11  CE3      -16.3350   -4.8890   52.8800 C.ar   76  TRP76       0.0012
     12  CZ2      -15.8520   -4.5120   50.1060 C.ar   76  TRP76       0.0191
     13  CZ3      -16.2180   -5.9750   52.0090 C.ar   76  TRP76       0.0001
     14  CH2      -15.9800   -5.7740   50.6370 C.ar   76  TRP76       0.0015
     15  N         -9.4860   -2.9390   52.6210 N.3    81  TYR81      -0.1241
     16  CA        -8.3230   -2.1960   52.1480 C.3    81  TYR81       0.1605
     17  C         -7.2190   -1.9050   53.1570 C.2    81  TYR81       0.2264
     18  O         -6.0740   -2.3220   52.9700 O.2    81  TYR81      -0.2867
     19  CB        -8.7880   -0.8680   51.5150 C.3    81  TYR81       0.0534
     20  CG        -9.8700   -1.0210   50.4590 C.ar   81  TYR81      -0.0201
     21  CD1      -11.1830   -0.5890   50.6970 C.ar   81  TYR81      -0.0009
     22  CD2       -9.6010   -1.6610   49.2510 C.ar   81  TYR81      -0.0009
     23  CE1      -12.1960   -0.8030   49.7600 C.ar   81  TYR81       0.0417
     24  CE2      -10.6090   -1.8770   48.3070 C.ar   81  TYR81       0.0417
     25  CZ       -11.8960   -1.4540   48.5660 C.ar   81  TYR81       0.1957
     26  OH       -12.8870   -1.7320   47.6520 O.3    81  TYR81      -0.2866
     27  N         -5.2790   -4.0320   44.1630 N.3    92  SER92      -0.1217
     28  CA        -6.2550   -3.1510   44.7910 C.3    92  SER92       0.1889
     29  C         -6.6840   -1.9370   43.9610 C.2    92  SER92       0.2288
     30  O         -7.8760   -1.7280   43.7290 O.2    92  SER92      -0.2866
     31  CB        -5.6860   -2.6730   46.1330 C.3    92  SER92       0.2089
     32  OG        -6.6270   -1.9210   46.8640 O.3    92  SER92      -0.2183
     33  N         -7.7380    0.1400   41.1070 N.3    94  PRO94      -0.2102
     34  CA        -8.2830   -0.1170   39.7640 C.3    94  PRO94       0.1504
     35  C         -7.6880    0.8300   38.7270 C.2    94  PRO94       0.2576
     36  O         -7.4120    1.9980   39.0140 O.2    94  PRO94      -0.2718
     37  CB        -9.7860    0.0970   39.9450 C.3    94  PRO94       0.0282
     38  CG       -10.0010   -0.0910   41.4370 C.3    94  PRO94       0.0208
     39  CD        -8.8030    0.5940   42.0130 C.3    94  PRO94       0.0893
     40  N         -7.4700    0.3110   37.5280 N.am   95  GLY95      -0.1943
     41  CA        -6.9190    1.1300   36.4710 C.3    95  GLY95       0.2014
     42  C         -8.0280    1.5430   35.5250 C.2    95  GLY95       0.2638
     43  O         -9.0900    0.9190   35.4770 O.2    95  GLY95      -0.2714
     44  N         -7.7930    2.6120   34.7730 N.am   96  VAL96      -0.1977
     45  CA        -8.7830    3.0830   33.8210 C.3    96  VAL96       0.1596
     46  C         -8.0950    3.4920   32.5230 C.2    96  VAL96       0.2287
     47  O         -7.1190    4.2470   32.5320 O.2    96  VAL96      -0.2864
     48  CB        -9.5780    4.2890   34.3820 C.3    96  VAL96       0.0276
     49  CG1      -10.5750    4.7660   33.3460 C.3    96  VAL96       0.0022
     50  CG2      -10.3080    3.8960   35.6680 C.3    96  VAL96       0.0022
     51  N         -6.4780    4.7140   40.5260 N.3   315  TYR315     -0.1241
     52  CA        -6.8460    5.3210   41.7940 C.3   315  TYR315      0.1605
     53  C         -6.7660    4.3530   42.9680 C.2   315  TYR315      0.2264
     54  O         -7.0120    3.1540   42.8250 O.2   315  TYR315     -0.2867
     55  CB        -8.2500    5.9260   41.7070 C.3   315  TYR315      0.0534
     56  CG        -9.3960    4.9390   41.7160 C.ar  315  TYR315     -0.0201
     57  CD1      -10.0190    4.5690   42.9100 C.ar  315  TYR315     -0.0009
     58  CD2       -9.8770    4.3920   40.5260 C.ar  315  TYR315     -0.0009
     59  CE1      -11.1000    3.6850   42.9120 C.ar  315  TYR315      0.0417
     60  CE2      -10.9410    3.5050   40.5210 C.ar  315  TYR315      0.0417
     61  CZ       -11.5520    3.1570   41.7160 C.ar  315  TYR315      0.1957
     62  OH       -12.6140    2.2820   41.7060 O.3   315  TYR315     -0.2866
     63  N         -8.0750    2.5760   45.9250 N.3   317  HIS317     -0.1241
     64  CA        -9.4280    2.1570   46.2910 C.3   317  HIS317      0.1621
     65  C         -9.9790    2.5250   47.6570 C.2   317  HIS317      0.2264
     66  O        -11.1960    2.6190   47.8290 O.2   317  HIS317     -0.2867
     67  CB        -9.5780    0.6460   46.1120 C.3   317  HIS317      0.0745
     68  CG       -10.8550    0.2480   45.4530 C.ar  317  HIS317      0.0817
     69  ND1      -12.0540    0.8740   45.7180 N.ar  317  HIS317     -0.2268
     70  CD2      -11.1280   -0.7290   44.5570 C.ar  317  HIS317      0.1154
     71  CE1      -13.0150    0.2980   45.0080 C.ar  317  HIS317      0.1986
     72  NE2      -12.4790   -0.6800   44.2960 N.ar  317  HIS317     -0.2212
     73  N        -15.3810    4.4990   45.1310 N.3   321  GLU321     -0.1231
     74  CA       -15.7100    3.4540   44.1800 C.3   321  GLU321      0.1699
     75  C        -15.5740    3.9630   42.7520 C.2   321  GLU321      0.2592
     76  O        -15.1200    5.0870   42.5130 O.2   321  GLU321     -0.2718
     77  CB       -17.1420    2.9620   44.4040 C.3   321  GLU321      0.0402
     78  CG       -17.4530    2.5150   45.8290 C.3   321  GLU321      0.1161
     79  CD       -16.4970    1.4520   46.3200 C.2   321  GLU321      0.3649
     80  OE1      -16.1130    0.5880   45.5080 O.co2 321  GLU321     -0.2457
     81  OE2      -16.1420    1.4770   47.5160 O.co2 321  GLU321     -0.2457
     82  N        -15.9870    3.1210   41.8140 N.am  322  GLY322     -0.1957
     83  CA       -15.9100    3.4570   40.4090 C.3   322  GLY322      0.1869
     84  C        -16.8170    4.5900   39.9620 C.2   322  GLY322      0.2309
     85  O        -16.3220    5.5810   39.4270 O.2   322  GLY322     -0.2863
     86  N        -15.6420    8.0840   40.5440 N.3   325  ILE325     -0.1231
     87  CA       -14.4730    8.3250   39.7200 C.3   325  ILE325      0.1692
     88  C        -14.8650    8.5670   38.2620 C.2   325  ILE325      0.2591
     89  O        -14.3330    9.4790   37.6220 O.2   325  ILE325     -0.2718
     90  CB       -13.4970    7.1300   39.7600 C.3   325  ILE325      0.0266
     91  CG1      -12.9640    6.9280   41.1780 C.3   325  ILE325      0.0019
     92  CG2      -12.3540    7.3630   38.7830 C.3   325  ILE325      0.0020
     93  CD1      -12.1540    8.0850   41.7130 C.3   325  ILE325      0.0001
     94  N        -15.7820    7.7490   37.7370 N.am  326  VAL326     -0.1980
     95  CA       -16.2210    7.8890   36.3470 C.3   326  VAL326      0.1595
     96  C        -16.9430    9.2120   36.1270 C.2   326  VAL326      0.2287
     97  O        -16.8710    9.7900   35.0480 O.2   326  VAL326     -0.2864
     98  CB       -17.1690    6.7350   35.9080 C.3   326  VAL326      0.0276
     99  CG1      -16.6900    5.4260   36.4800 C.3   326  VAL326      0.0022
    100  CG2      -18.5990    7.0250   36.3260 C.3   326  VAL326      0.0022
    101  N        -18.7110  -12.7200   41.9610 N.3   426  TYR426     -0.1241
    102  CA       -18.9190  -11.4510   42.6500 C.3   426  TYR426      0.1605
    103  C        -19.1730  -10.3330   41.6550 C.2   426  TYR426      0.2264
    104  O        -18.4690  -10.2200   40.6560 O.2   426  TYR426     -0.2867
    105  CB       -17.6530  -11.1100   43.4520 C.3   426  TYR426      0.0534
    106  CG       -17.6930   -9.7960   44.2250 C.ar  426  TYR426     -0.0201
    107  CD1      -17.8300   -9.7860   45.6140 C.ar  426  TYR426     -0.0009
    108  CD2      -17.5870   -8.5680   43.5720 C.ar  426  TYR426     -0.0009
    109  CE1      -17.8570   -8.5890   46.3350 C.ar  426  TYR426      0.0417
    110  CE2      -17.6180   -7.3530   44.2910 C.ar  426  TYR426      0.0417
    111  CZ       -17.7530   -7.3750   45.6710 C.ar  426  TYR426      0.1957
    112  OH       -17.7600   -6.1970   46.3880 O.3   426  TYR426     -0.2866
    113  N        -20.0200   -6.0800   41.8860 N.3   428  SER428     -0.1217
    114  CA       -20.1910   -4.9050   42.7410 C.3   428  SER428      0.1889
    115  C        -21.5750   -4.2910   42.6100 C.2   428  SER428      0.2288
    116  O        -22.0810   -4.1050   41.5060 O.2   428  SER428     -0.2866
    117  CB       -19.1560   -3.8390   42.3940 C.3   428  SER428      0.2089
    118  OG       -17.8620   -4.3960   42.4130 O.3   428  SER428     -0.2183
    119  N        -20.4590   -0.5000   48.9280 N.3   439  THR439     -0.1218
    120  CA       -20.9020   -1.6040   48.0790 C.3   439  THR439      0.1862
    121  C        -21.3600   -2.8570   48.8310 C.2   439  THR439      0.2287
    122  O        -21.0970   -3.0150   50.0260 O.2   439  THR439     -0.2866
    123  CB       -19.7730   -2.0580   47.1300 C.3   439  THR439      0.1770
    124  OG1      -18.7510   -2.7170   47.8950 O.3   439  THR439     -0.2211
    125  CG2      -19.1500   -0.8640   46.3800 C.3   439  THR439      0.0375
    126  N        -14.4960  -12.1880   39.7130 N.3   526  SER526     -0.1202
    127  CA       -14.6780  -10.9370   40.4410 C.3   526  SER526      0.2020
    128  C        -14.9780   -9.9050   39.3640 C.2   526  SER526      0.2619
    129  O        -14.1150   -9.6000   38.5360 O.2   526  SER526     -0.2717
    130  CB       -13.4060  -10.5820   41.2050 C.3   526  SER526      0.2103
    131  OG       -13.5880   -9.3830   41.9220 O.3   526  SER526     -0.2182
    132  N        -16.1900   -9.3610   39.3880 N.am  527  THR527     -0.1938
    133  CA       -16.6240   -8.4190   38.3530 C.3   527  THR527      0.2028
    134  C        -17.2550   -7.1210   38.8440 C.2   527  THR527      0.2642
    135  O        -17.6110   -6.9690   40.0140 O.2   527  THR527     -0.2714
    136  CB       -17.6870   -9.0680   37.4560 C.3   527  THR527      0.1808
    137  OG1      -18.9070   -9.1670   38.2030 O.3   527  THR527     -0.2208
    138  CG2      -17.2650  -10.4820   37.0390 C.3   527  THR527      0.0379
    139  N        -17.4370   -6.1960   37.9100 N.am  528  ALA528     -0.1977
    140  CA       -18.0510   -4.9200   38.2280 C.3   528  ALA528      0.1597
    141  C        -18.3640   -4.1870   36.9400 C.2   528  ALA528      0.2287
    142  O        -17.6150   -4.2690   35.9760 O.2   528  ALA528     -0.2864
    143  CB       -17.1120   -4.0810   39.0740 C.3   528  ALA528      0.0319
    144  N        -18.7100   -0.6350   35.1670 N.3   530  VAL530     -0.1245
    145  CA       -18.3350    0.7650   35.3480 C.3   530  VAL530      0.1561
    146  C        -18.9250    1.5630   34.1880 C.2   530  VAL530      0.2260
    147  O        -18.2320    1.8660   33.2190 O.2   530  VAL530     -0.2867
    148  CB       -16.7980    0.9360   35.3600 C.3   530  VAL530      0.0252
    149  CG1      -16.4260    2.4070   35.4600 C.3   530  VAL530      0.0019
    150  CG2      -16.2050    0.1560   36.5160 C.3   530  VAL530      0.0019
    151  N        -12.6060    0.1570   32.8030 N.3   538  GLY538     -0.1210
    152  CA       -11.7280   -0.0520   33.9380 C.3   538  GLY538      0.1956
    153  C        -11.1690   -1.4650   33.9350 C.2   538  GLY538      0.2612
    154  O        -11.5510   -2.2900   33.1010 O.2   538  GLY538     -0.2717
    155  N        -10.2480   -1.7470   34.8540 N.am  539  PHE539     -0.1962
    156  CA        -9.6630   -3.0750   34.9770 C.3   539  PHE539      0.1771
    157  C         -8.9470   -3.2440   36.3090 C.2   539  PHE539      0.2619
    158  O         -8.4340   -2.2780   36.8800 O.2   539  PHE539     -0.2715
    159  CB        -8.7080   -3.3790   33.8080 C.3   539  PHE539      0.0574
    160  CG        -7.9040   -2.2000   33.3530 C.ar  539  PHE539     -0.0200
    161  CD1       -6.7270   -1.8460   34.0060 C.ar  539  PHE539     -0.0042
    162  CD2       -8.3340   -1.4210   32.2740 C.ar  539  PHE539     -0.0042
    163  CE1       -5.9890   -0.7280   33.5930 C.ar  539  PHE539     -0.0003
    164  CE2       -7.6000   -0.3010   31.8560 C.ar  539  PHE539     -0.0003
    165  CZ        -6.4300    0.0400   32.5200 C.ar  539  PHE539     -0.0000
    166  N         -8.9300   -4.4760   36.8080 N.am  540  PHE540     -0.1974
    167  CA        -8.2870   -4.7930   38.0810 C.3   540  PHE540      0.1639
    168  C         -7.8480   -6.2470   38.0650 C.2   540  PHE540      0.2290
    169  O         -8.3580   -7.0410   37.2720 O.2   540  PHE540     -0.2864
    170  CB        -9.2640   -4.5490   39.2340 C.3   540  PHE540      0.0560
    171  CG       -10.6330   -5.1240   39.0000 C.ar  540  PHE540     -0.0200
    172  CD1      -10.8850   -6.4750   39.2140 C.ar  540  PHE540     -0.0042
    173  CD2      -11.6700   -4.3130   38.5500 C.ar  540  PHE540     -0.0042
    174  CE1      -12.1520   -7.0090   38.9840 C.ar  540  PHE540     -0.0003
    175  CE2      -12.9360   -4.8340   38.3180 C.ar  540  PHE540     -0.0003
    176  CZ       -13.1790   -6.1920   38.5370 C.ar  540  PHE540     -0.0000
    177  N         -9.0970  -11.5050   42.3600 N.3   543  VAL543     -0.1245
    178  CA        -9.0350  -11.4440   43.8230 C.3   543  VAL543      0.1561
    179  C         -8.5130  -12.7440   44.4290 C.2   543  VAL543      0.2260
    180  O         -8.2890  -12.8340   45.6390 O.2   543  VAL543     -0.2867
    181  CB       -10.4130  -11.1200   44.4560 C.3   543  VAL543      0.0252
    182  CG1      -10.8590   -9.7360   44.0060 C.3   543  VAL543      0.0019
    183  CG2      -11.4470  -12.1950   44.0990 C.3   543  VAL543      0.0019
    184  N        -14.0000   -6.4110   34.2120 N.3   551  CYS551     -0.1235
    185  CA       -14.6470   -5.1120   34.3170 C.3   551  CYS551      0.1677
    186  C        -15.2070   -4.7070   32.9580 C.2   551  CYS551      0.2270
    187  O        -14.6010   -4.9840   31.9260 O.2   551  CYS551     -0.2867
    188  CB       -13.6340   -4.0720   34.8040 C.3   551  CYS551      0.0956
    189  SG       -14.3480   -2.4520   35.1590 S.3   551  CYS551     -0.0801
@<TRIPOS>BOND
     1   164   162   ar
     2   164   165   ar
     3   187   186    2
     4   162   160   ar
     5   165   163   ar
     6    46    47    2
     7    46    45    1
     8   151   152    1
     9   186   185    1
    10   154   153    2
    11   147   146    2
    12    49    48    1
    13   160   159    1
    14   160   161   ar
    15   163   161   ar
    16   159   156    1
    17    45    48    1
    18    45    44    1
    19   153   152    1
    20   153   155   am
    21   146   145    1
    22   184   185    1
    23   185   188    1
    24    48    50    1
    25    44    42   am
    26   188   189    1
    27   155   156    1
    28   156   157    1
    29    97    96    2
    30   144   145    1
    31   145   148    1
    32   148   149    1
    33   148   150    1
    34    43    42    2
    35    42    41    1
    36    98   100    1
    37    98    95    1
    38    98    99    1
    39   142   141    2
    40    96    95    1
    41   157   166   am
    42   157   158    2
    43    95    94    1
    44    41    40    1
    45   166   167    1
    46   141   140    1
    47   138   136    1
    48   169   168    2
    49   136   137    1
    50   136   133    1
    51    40    35   am
    52    89    88    2
    53    94    88   am
    54   139   140    1
    55   139   134   am
    56   168   167    1
    57   167   170    1
    58   140   143    1
    59    88    87    1
    60   175   176   ar
    61   175   173   ar
    62   133   134    1
    63   133   132    1
    64   129   128    2
    65   176   174   ar
    66   173   171   ar
    67    35    36    2
    68    35    34    1
    69    92    90    1
    70   134   135    2
    71   174   172   ar
    72   171   172   ar
    73   171   170    1
    74   128   132   am
    75   128   127    1
    76    85    84    2
    77   126   127    1
    78    87    90    1
    79    87    86    1
    80    90    91    1
    81    34    37    1
    82    34    33    1
    83    37    38    1
    84    84    83    1
    85    83    82    1
    86   127   130    1
    87    60    58   ar
    88    60    61   ar
    89    58    56   ar
    90    51    52    1
    91   104   103    2
    92    33    39    1
    93    91    93    1
    94   130   131    1
    95    38    39    1
    96   116   115    2
    97   103   102    1
    98    62    61    1
    99    55    56    1
   100    55    52    1
   101    56    57   ar
   102    61    59   ar
   103    52    53    1
   104    82    75   am
   105   113   114    1
   106   101   102    1
   107   177   178    1
   108   117   118    1
   109   117   114    1
   110    76    75    2
   111   115   114    1
   112   102   105    1
   113    75    74    1
   114    54    53    2
   115    57    59   ar
   116   105   106    1
   117   108   106   ar
   118   108   110   ar
   119    30    29    2
   120   178   179    1
   121   178   181    1
   122    29    28    1
   123   182   181    1
   124   183   181    1
   125    27    28    1
   126    74    77    1
   127    74    73    1
   128   106   107   ar
   129   110   111   ar
   130    72    70   ar
   131    72    71   ar
   132    77    78    1
   133   179   180    2
   134    70    68   ar
   135    28    31    1
   136    71    69   ar
   137    68    69   ar
   138    68    67    1
   139    80    79   ar
   140   107   109   ar
   141   111   109   ar
   142   111   112    1
   143    78    79    1
   144    63    64    1
   145    67    64    1
   146    31    32    1
   147    64    65    1
   148    79    81   ar
   149   125   123    1
   150   123   124    1
   151   123   120    1
   152    26    25    1
   153    65    66    2
   154   120   121    1
   155   120   119    1
   156    24    25   ar
   157    24    22   ar
   158    25    23   ar
   159   121   122    2
   160    22    20   ar
   161    23    21   ar
   162    12    14   ar
   163    12    10   ar
   164    20    21   ar
   165    20    19    1
   166    14    13   ar
   167     9    10   ar
   168     9     7   ar
   169    10     8   ar
   170    19    16    1
   171     7     6   ar
   172    13    11   ar
   173    16    15    1
   174    16    17    1
   175     8    11   ar
   176     8     6   ar
   177     6     5    1
   178    18    17    2
   179     4     3    2
   180     5     2    1
   181     3     2    1
   182     2     1    1
