@<TRIPOS>MOLECULE
tmp/2h44A00.pdb
 224 213 0 0 0
SMALL
GASTEIGER

@<TRIPOS>ATOM
      1  N         74.5080   30.0730   17.4480 N.3    78  TYR78      -0.1227
      2  CA        74.9530   28.9280   18.2240 C.3    78  TYR78       0.1736
      3  C         74.6650   27.5560   17.6230 C.2    78  TYR78       0.2595
      4  O         75.5620   26.7160   17.5270 O.2    78  TYR78      -0.2718
      5  CB        74.3680   28.9830   19.6380 C.3    78  TYR78       0.0548
      6  CG        74.8420   27.8270   20.4700 C.ar   78  TYR78      -0.0200
      7  CD1       76.1610   27.7630   20.9080 C.ar   78  TYR78      -0.0009
      8  CD2       74.0080   26.7360   20.7190 C.ar   78  TYR78      -0.0009
      9  CE1       76.6530   26.6300   21.5390 C.ar   78  TYR78       0.0417
     10  CE2       74.4900   25.5910   21.3550 C.ar   78  TYR78       0.0417
     11  CZ        75.8200   25.5460   21.7540 C.ar   78  TYR78       0.1957
     12  OH        76.3200   24.4210   22.3610 O.3    78  TYR78      -0.2866
     13  N         73.4270   27.3100   17.2170 N.am   79  HIS79      -0.1975
     14  CA        73.1150   25.9950   16.6480 C.3    79  HIS79       0.1656
     15  C         73.5720   25.8890   15.2050 C.2    79  HIS79       0.2291
     16  O         72.7740   25.9730   14.2730 O.2    79  HIS79      -0.2864
     17  CB        71.6240   25.7030   16.7860 C.3    79  HIS79       0.0771
     18  CG        71.1850   25.5930   18.2090 C.ar   79  HIS79       0.0820
     19  ND1       70.5340   26.6110   18.8700 N.ar   79  HIS79      -0.2267
     20  CD2       71.3970   24.6230   19.1290 C.ar   79  HIS79       0.1154
     21  CE1       70.3680   26.2750   20.1350 C.ar   79  HIS79       0.1986
     22  NE2       70.8840   25.0740   20.3200 N.ar   79  HIS79      -0.2212
     23  N         78.4550   23.6320   16.9690 N.3    83  HIS83      -0.1241
     24  CA        77.6850   23.0110   18.0590 C.3    83  HIS83       0.1621
     25  C         77.6080   21.4940   17.8370 C.2    83  HIS83       0.2264
     26  O         77.8200   20.7100   18.7630 O.2    83  HIS83      -0.2867
     27  CB        76.2540   23.5730   18.1360 C.3    83  HIS83       0.0745
     28  CG        75.3080   22.7090   18.9220 C.ar   83  HIS83       0.0817
     29  ND1       75.4790   22.4420   20.2650 N.ar   83  HIS83      -0.2268
     30  CD2       74.1900   22.0410   18.5470 C.ar   83  HIS83       0.1154
     31  CE1       74.5060   21.6460   20.6820 C.ar   83  HIS83       0.1986
     32  NE2       73.7100   21.3880   19.6580 N.ar   83  HIS83      -0.2212
     33  N         71.1730   18.5550   14.6280 N.3   120  ASP120     -0.1239
     34  CA        70.5930   19.8910   14.4820 C.3   120  ASP120      0.1674
     35  C         70.6340   20.3990   13.0380 C.2   120  ASP120      0.2266
     36  O         70.6010   21.6060   12.7920 O.2   120  ASP120     -0.2867
     37  CB        71.2990   20.9030   15.4140 C.3   120  ASP120      0.1410
     38  CG        70.6430   20.9990   16.7920 C.2   120  ASP120      0.3668
     39  OD1       69.3970   20.9190   16.8630 O.co2 120  ASP120     -0.2456
     40  OD2       71.3600   21.1740   17.8010 O.co2 120  ASP120     -0.2456
     41  N         64.3800   28.1340   17.6940 N.3   127  ASN127     -0.1240
     42  CA        64.3550   27.1880   18.7980 C.3   127  ASN127      0.1653
     43  C         62.8880   26.9210   19.1220 C.2   127  ASN127      0.2266
     44  O         62.1750   27.7950   19.6150 O.2   127  ASN127     -0.2867
     45  CB        65.1130   27.7820   19.9840 C.3   127  ASN127      0.1155
     46  CG        66.5880   27.9970   19.6630 C.2   127  ASN127      0.2627
     47  OD1       67.3820   27.0590   19.6900 O.2   127  ASN127     -0.2716
     48  ND2       66.9480   29.2230   19.3170 N.am  127  ASN127     -0.0877
     49  N         61.7900   24.4110   21.1520 N.3   129  SER129     -0.1202
     50  CA        61.6350   23.7250   22.4240 C.3   129  SER129      0.2020
     51  C         62.5720   24.3640   23.4180 C.2   129  SER129      0.2619
     52  O         63.7900   24.2740   23.2750 O.2   129  SER129     -0.2717
     53  CB        61.9780   22.2460   22.2850 C.3   129  SER129      0.2103
     54  OG        61.0390   21.5990   21.4520 O.3   129  SER129     -0.2182
     55  N         62.0070   25.0170   24.4260 N.am  130  TYR130     -0.1961
     56  CA        62.8340   25.6660   25.4260 C.3   130  TYR130      0.1771
     57  C         62.0360   25.9400   26.6910 C.2   130  TYR130      0.2619
     58  O         60.8570   25.5920   26.7810 O.2   130  TYR130     -0.2715
     59  CB        63.4020   26.9740   24.8780 C.3   130  TYR130      0.0574
     60  CG        62.3400   27.9960   24.5770 C.ar  130  TYR130     -0.0198
     61  CD1       61.5900   27.9280   23.4080 C.ar  130  TYR130     -0.0009
     62  CD2       62.0490   29.0030   25.4910 C.ar  130  TYR130     -0.0009
     63  CE1       60.5640   28.8390   23.1600 C.ar  130  TYR130      0.0417
     64  CE2       61.0330   29.9120   25.2580 C.ar  130  TYR130      0.0417
     65  CZ        60.2940   29.8260   24.0950 C.ar  130  TYR130      0.1957
     66  OH        59.2860   30.7320   23.8760 O.3   130  TYR130     -0.2866
     67  N         62.6920   26.5770   27.6540 N.am  131  ILE131     -0.1977
     68  CA        62.0760   26.8960   28.9310 C.3   131  ILE131      0.1596
     69  C         61.8270   28.3870   29.1150 C.2   131  ILE131      0.2287
     70  O         62.7400   29.2000   28.9960 O.2   131  ILE131     -0.2864
     71  CB        62.9660   26.4110   30.0880 C.3   131  ILE131      0.0276
     72  CG1       63.1080   24.8910   30.0090 C.3   131  ILE131      0.0022
     73  CG2       62.3830   26.8610   31.4270 C.3   131  ILE131      0.0022
     74  CD1       64.0870   24.3190   30.9860 C.3   131  ILE131      0.0001
     75  N         62.7470   30.5880   33.3400 N.3   134  SER134     -0.1217
     76  CA        63.6180   29.6970   34.1020 C.3   134  SER134      0.1889
     77  C         64.0490   30.3260   35.4200 C.2   134  SER134      0.2288
     78  O         64.3160   29.6160   36.3920 O.2   134  SER134     -0.2866
     79  CB        64.8730   29.3270   33.2960 C.3   134  SER134      0.2089
     80  OG        65.7240   30.4460   33.1400 O.3   134  SER134     -0.2183
     81  N         67.2790   14.5630   21.3020 N.3   189  THR189     -0.1218
     82  CA        67.8770   15.8630   21.5890 C.3   189  THR189      0.1862
     83  C         66.8590   16.9900   21.7420 C.2   189  THR189      0.2287
     84  O         67.2310   18.1180   22.0410 O.2   189  THR189     -0.2866
     85  CB        68.9260   16.2670   20.5290 C.3   189  THR189      0.1770
     86  OG1       68.3140   16.3330   19.2360 O.3   189  THR189     -0.2211
     87  CG2       70.0710   15.2520   20.5040 C.3   189  THR189      0.0375
     88  N         64.4010   18.8900   23.8090 N.3   191  LEU191     -0.1245
     89  CA        64.2200   18.9960   25.2580 C.3   191  LEU191      0.1561
     90  C         62.9250   18.3650   25.7590 C.2   191  LEU191      0.2260
     91  O         62.8860   17.8110   26.8560 O.2   191  LEU191     -0.2867
     92  CB        64.2750   20.4570   25.7070 C.3   191  LEU191      0.0270
     93  CG        65.6670   21.0740   25.8510 C.3   191  LEU191      0.0019
     94  CD1       65.5400   22.5070   26.3630 C.3   191  LEU191      0.0001
     95  CD2       66.5030   20.2330   26.8150 C.3   191  LEU191      0.0001
     96  N         74.6720   17.0100   24.0340 N.3   230  ASP230     -0.1225
     97  CA        74.0600   18.1920   23.4170 C.3   230  ASP230      0.1805
     98  C         74.1830   19.4230   24.3340 C.2   230  ASP230      0.2597
     99  O         74.4660   20.5270   23.8660 O.2   230  ASP230     -0.2718
    100  CB        72.5830   17.8770   23.0970 C.3   230  ASP230      0.1424
    101  CG        71.8590   19.0020   22.3370 C.2   230  ASP230      0.3668
    102  OD1       72.4580   19.6610   21.4630 O.co2 230  ASP230     -0.2456
    103  OD2       70.6560   19.2050   22.6020 O.co2 230  ASP230     -0.2456
    104  N         74.0060   19.2220   25.6370 N.am  231  LEU231     -0.1979
    105  CA        74.0740   20.3240   26.6060 C.3   231  LEU231      0.1596
    106  C         75.4550   20.5750   27.2110 C.2   231  LEU231      0.2287
    107  O         75.6200   21.5170   27.9940 O.2   231  LEU231     -0.2864
    108  CB        73.1080   20.0510   27.7670 C.3   231  LEU231      0.0297
    109  CG        71.6170   19.9380   27.4500 C.3   231  LEU231      0.0022
    110  CD1       70.8670   19.5050   28.6970 C.3   231  LEU231      0.0001
    111  CD2       71.1030   21.2820   26.9380 C.3   231  LEU231      0.0001
    112  N         78.0790   22.1140   26.5590 N.3   233  ALA233     -0.1231
    113  CA        78.7200   23.4240   26.5380 C.3   233  ALA233      0.1694
    114  C         78.5880   24.0600   27.9350 C.2   233  ALA233      0.2591
    115  O         79.4510   24.8250   28.3770 O.2   233  ALA233     -0.2718
    116  CB        78.0520   24.3130   25.5070 C.3   233  ALA233      0.0304
    117  N         77.5030   23.7270   28.6280 N.am  234  ILE234     -0.1980
    118  CA        77.2300   24.2710   29.9590 C.3   234  ILE234      0.1595
    119  C         78.2070   23.7740   31.0260 C.2   234  ILE234      0.2287
    120  O         78.2490   24.3290   32.1250 O.2   234  ILE234     -0.2864
    121  CB        75.7700   23.9340   30.4170 C.3   234  ILE234      0.0276
    122  CG1       75.3360   24.8540   31.5590 C.3   234  ILE234      0.0022
    123  CG2       75.6980   22.5050   30.9450 C.3   234  ILE234      0.0022
    124  CD1       75.0700   26.2780   31.1420 C.3   234  ILE234      0.0001
    125  N         82.7630   28.3500   28.6380 N.3   241  GLN241     -0.1245
    126  CA        81.3380   28.2900   28.9470 C.3   241  GLN241      0.1566
    127  C         80.6550   29.6220   28.6600 C.2   241  GLN241      0.2260
    128  O         79.6280   29.6750   27.9820 O.2   241  GLN241     -0.2867
    129  CB        81.1450   27.9480   30.4320 C.3   241  GLN241      0.0367
    130  CG        79.9840   28.7020   31.1170 C.3   241  GLN241      0.0905
    131  CD        78.6490   28.1930   30.6530 C.2   241  GLN241      0.2608
    132  OE1       77.5950   28.7630   30.9530 O.2   241  GLN241     -0.2717
    133  NE2       78.6850   27.0970   29.9060 N.am  241  GLN241     -0.0878
    134  N         80.3840   30.5760   24.9310 N.3   244  ILE244     -0.1231
    135  CA        79.3330   29.8020   24.2800 C.3   244  ILE244      0.1692
    136  C         77.9490   30.2850   24.7170 C.2   244  ILE244      0.2591
    137  O         77.0300   30.3590   23.9040 O.2   244  ILE244     -0.2718
    138  CB        79.4880   28.2930   24.6150 C.3   244  ILE244      0.0266
    139  CG1       80.8110   27.7730   24.0560 C.3   244  ILE244      0.0019
    140  CG2       78.3640   27.5230   23.9720 C.3   244  ILE244      0.0020
    141  CD1       81.1570   26.3690   24.5320 C.3   244  ILE244      0.0001
    142  N         77.8160   30.6500   25.9920 N.am  245  ALA245     -0.1980
    143  CA        76.5420   31.1480   26.5100 C.3   245  ALA245      0.1597
    144  C         76.1450   32.4640   25.8410 C.2   245  ALA245      0.2287
    145  O         74.9560   32.7370   25.6560 O.2   245  ALA245     -0.2864
    146  CB        76.6260   31.3250   28.0260 C.3   245  ALA245      0.0319
    147  N         74.5240   31.5470   22.6040 N.3   248  VAL248     -0.1231
    148  CA        73.1590   31.0590   22.7990 C.3   248  VAL248      0.1692
    149  C         72.2070   32.2390   23.0070 C.2   248  VAL248      0.2591
    150  O         71.1300   32.2990   22.4020 O.2   248  VAL248     -0.2718
    151  CB        73.0520   30.1160   24.0260 C.3   248  VAL248      0.0266
    152  CG1       71.6050   29.6260   24.1790 C.3   248  VAL248      0.0020
    153  CG2       74.0000   28.9250   23.8680 C.3   248  VAL248      0.0020
    154  N         72.6020   33.1710   23.8680 N.am  249  ALA249     -0.1980
    155  CA        71.7840   34.3450   24.1480 C.3   249  ALA249      0.1597
    156  C         71.5600   35.1580   22.8750 C.2   249  ALA249      0.2287
    157  O         70.4470   35.5940   22.5870 O.2   249  ALA249     -0.2864
    158  CB        72.4610   35.2130   25.2300 C.3   249  ALA249      0.0319
    159  N         69.0090   33.5480   20.8030 N.3   252  PHE252     -0.1227
    160  CA        67.6900   33.6980   21.4010 C.3   252  PHE252      0.1736
    161  C         67.1520   35.1020   21.1330 C.2   252  PHE252      0.2595
    162  O         65.9860   35.2650   20.7760 O.2   252  PHE252     -0.2718
    163  CB        67.7510   33.4380   22.9140 C.3   252  PHE252      0.0547
    164  CG        67.8640   31.9730   23.2870 C.ar  252  PHE252     -0.0202
    165  CD1       68.0360   31.5990   24.6140 C.ar  252  PHE252     -0.0042
    166  CD2       67.7690   30.9760   22.3260 C.ar  252  PHE252     -0.0042
    167  CE1       68.1070   30.2570   24.9830 C.ar  252  PHE252     -0.0003
    168  CE2       67.8400   29.6210   22.6870 C.ar  252  PHE252     -0.0003
    169  CZ        68.0090   29.2680   24.0180 C.ar  252  PHE252     -0.0000
    170  N         68.0080   36.1120   21.2930 N.am  253  PHE253     -0.1976
    171  CA        67.5870   37.4970   21.0650 C.3   253  PHE253      0.1639
    172  C         67.2590   37.7420   19.6010 C.2   253  PHE253      0.2290
    173  O         66.3480   38.5100   19.2780 O.2   253  PHE253     -0.2864
    174  CB        68.6620   38.4820   21.5410 C.3   253  PHE253      0.0560
    175  CG        68.9110   38.4350   23.0270 C.ar  253  PHE253     -0.0200
    176  CD1       67.9120   38.0040   23.9020 C.ar  253  PHE253     -0.0042
    177  CD2       70.1380   38.8220   23.5540 C.ar  253  PHE253     -0.0042
    178  CE1       68.1360   37.9570   25.2760 C.ar  253  PHE253     -0.0003
    179  CE2       70.3710   38.7810   24.9210 C.ar  253  PHE253     -0.0003
    180  CZ        69.3690   38.3460   25.7880 C.ar  253  PHE253     -0.0000
    181  N         63.2830   35.5530   27.8410 N.3   270  LEU270     -0.1245
    182  CA        64.4420   34.8080   27.3570 C.3   270  LEU270      0.1561
    183  C         64.9340   35.2850   25.9950 C.2   270  LEU270      0.2260
    184  O         66.1380   35.2780   25.7160 O.2   270  LEU270     -0.2867
    185  CB        64.0960   33.3200   27.2590 C.3   270  LEU270      0.0270
    186  CG        65.1870   32.3970   26.7060 C.3   270  LEU270      0.0019
    187  CD1       66.4110   32.4670   27.5950 C.3   270  LEU270      0.0001
    188  CD2       64.6630   30.9580   26.6340 C.3   270  LEU270      0.0001
    189  N         70.1310   37.5000   32.5310 N.3   279  ILE279     -0.1245
    190  CA        70.7850   36.2860   32.0510 C.3   279  ILE279      0.1561
    191  C         71.3470   35.3640   33.1310 C.2   279  ILE279      0.2260
    192  O         71.0490   34.1720   33.1410 O.2   279  ILE279     -0.2867
    193  CB        71.8940   36.6190   31.0230 C.3   279  ILE279      0.0252
    194  CG1       71.2490   37.1140   29.7250 C.3   279  ILE279      0.0019
    195  CG2       72.7380   35.3780   30.7390 C.3   279  ILE279      0.0019
    196  CD1       72.2430   37.4650   28.6220 C.3   279  ILE279      0.0001
    197  N         68.7460   33.4460   34.7950 N.3   282  MET282     -0.1230
    198  CA        68.1450   32.5190   33.8360 C.3   282  MET282      0.1702
    199  C         69.0500   31.3020   33.6470 C.2   282  MET282      0.2592
    200  O         68.5720   30.1680   33.5360 O.2   282  MET282     -0.2718
    201  CB        67.9300   33.2080   32.4850 C.3   282  MET282      0.0401
    202  CG        66.9120   34.3330   32.5010 C.3   282  MET282      0.0596
    203  SD        66.8190   35.1060   30.8840 S.3   282  MET282     -0.1393
    204  CE        65.3610   36.1260   31.0400 C.3   282  MET282      0.0692
    205  N         70.3590   31.5370   33.6030 N.am  283  GLN283     -0.1979
    206  CA        71.3090   30.4400   33.4390 C.3   283  GLN283      0.1601
    207  C         71.2450   29.5270   34.6570 C.2   283  GLN283      0.2287
    208  O         71.2860   28.3020   34.5300 O.2   283  GLN283     -0.2864
    209  CB        72.7330   30.9780   33.2580 C.3   283  GLN283      0.0394
    210  CG        73.0040   31.5920   31.8870 C.3   283  GLN283      0.0908
    211  CD        73.1880   30.5530   30.7910 C.2   283  GLN283      0.2608
    212  OE1       73.3430   29.3590   31.0620 O.2   283  GLN283     -0.2717
    213  NE2       73.1890   31.0030   29.5490 N.am  283  GLN283     -0.0878
    214  N         68.0810   27.4220   34.5610 N.3   286  PHE286     -0.1241
    215  CA        68.1800   26.3840   33.5510 C.3   286  PHE286      0.1605
    216  C         69.0430   25.2260   34.0480 C.2   286  PHE286      0.2264
    217  O         68.6740   24.0550   33.9190 O.2   286  PHE286     -0.2867
    218  CB        68.7730   26.9460   32.2600 C.3   286  PHE286      0.0534
    219  CG        68.9660   25.9080   31.2020 C.ar  286  PHE286     -0.0203
    220  CD1       67.8650   25.3230   30.5820 C.ar  286  PHE286     -0.0042
    221  CD2       70.2410   25.4710   30.8670 C.ar  286  PHE286     -0.0042
    222  CE1       68.0370   24.3080   29.6410 C.ar  286  PHE286     -0.0003
    223  CE2       70.4250   24.4620   29.9320 C.ar  286  PHE286     -0.0003
    224  CZ        69.3210   23.8780   29.3190 C.ar  286  PHE286     -0.0000
@<TRIPOS>BOND
     1    36    35    2
     2    35    34    1
     3    16    15    2
     4    34    33    1
     5    34    37    1
     6    15    14    1
     7    37    38    1
     8    14    17    1
     9    14    13    1
    10    17    18    1
    11    38    39   ar
    12    38    40   ar
    13    23    24    1
    14    13     3   am
    15     1     2    1
    16     4     3    2
    17     3     2    1
    18    41    42    1
    19    25    24    1
    20    25    26    2
    21    24    27    1
    22    27    28    1
    23    18    19   ar
    24    18    20   ar
    25     2     5    1
    26    30    28   ar
    27    30    32   ar
    28    42    43    1
    29    42    45    1
    30    19    21   ar
    31    28    29   ar
    32    43    44    2
    33    20    22   ar
    34    86    85    1
    35   173   172    2
    36    48    46   am
    37   172   171    1
    38     5     6    1
    39    32    31   ar
    40    46    47    2
    41    46    45    1
    42    21    22   ar
    43    29    31   ar
    44     6     8   ar
    45     6     7   ar
    46    87    85    1
    47    85    82    1
    48     8    10   ar
    49   162   161    2
    50   159   160    1
    51     7     9   ar
    52   171   170    1
    53   171   174    1
    54   161   170   am
    55   161   160    1
    56    49    50    1
    57    81    82    1
    58    10    11   ar
    59   160   163    1
    60    54    53    1
    61   102   101   ar
    62     9    11   ar
    63   174   175    1
    64    82    83    1
    65    83    84    2
    66    11    12    1
    67    53    50    1
    68   166   168   ar
    69   166   164   ar
    70   101   103   ar
    71   101   100    1
    72   150   149    2
    73    50    51    1
    74   157   156    2
    75   147   148    1
    76   168   169   ar
    77   148   149    1
    78   148   151    1
    79   156   155    1
    80   163   164    1
    81   149   154   am
    82   175   177   ar
    83   175   176   ar
    84   100    97    1
    85    63    61   ar
    86    63    65   ar
    87    52    51    2
    88   164   165   ar
    89    61    60   ar
    90    97    96    1
    91    97    98    1
    92    51    55   am
    93   177   179   ar
    94    88    89    1
    95    99    98    2
    96   154   155    1
    97   153   151    1
    98    66    65    1
    99   176   178   ar
   100   137   136    2
   101   140   138    1
   102   169   167   ar
   103   151   152    1
   104   139   141    1
   105   139   138    1
   106    65    64   ar
   107   155   158    1
   108   135   138    1
   109   135   136    1
   110   135   134    1
   111    98   104   am
   112    55    56    1
   113    60    59    1
   114    60    62   ar
   115   165   167   ar
   116   136   142   am
   117    59    56    1
   118   179   180   ar
   119    89    92    1
   120    89    90    1
   121    64    62   ar
   122   178   180   ar
   123    56    57    1
   124   116   113    1
   125   104   105    1
   126   145   144    2
   127    92    93    1
   128   184   183    2
   129    90    91    2
   130   144   143    1
   131    93    94    1
   132    93    95    1
   133   142   143    1
   134   183   182    1
   135   143   146    1
   136   113   112    1
   137   113   114    1
   138   105   106    1
   139   105   108    1
   140   188   186    1
   141    57    58    2
   142    57    67   am
   143   186   185    1
   144   186   187    1
   145   111   109    1
   146   106   107    2
   147   185   182    1
   148   182   181    1
   149   109   108    1
   150   109   110    1
   151    67    68    1
   152   114   115    2
   153   114   117   am
   154   128   127    2
   155   196   194    1
   156   117   118    1
   157   125   126    1
   158   127   126    1
   159    68    69    1
   160    68    71    1
   161   126   129    1
   162    70    69    2
   163   224   222   ar
   164   224   223   ar
   165   213   211   am
   166   222   220   ar
   167   194   193    1
   168   133   131   am
   169   223   221   ar
   170   118   121    1
   171   118   119    1
   172    72    71    1
   173    72    74    1
   174    71    73    1
   175   121   123    1
   176   121   122    1
   177   129   130    1
   178   220   219   ar
   179   131   132    2
   180   131   130    1
   181   195   193    1
   182   211   212    2
   183   211   210    1
   184   221   219   ar
   185   203   204    1
   186   203   202    1
   187   193   190    1
   188   119   120    2
   189   124   122    1
   190   219   218    1
   191   210   209    1
   192   190   189    1
   193   190   191    1
   194   218   215    1
   195   201   202    1
   196   201   198    1
   197   191   192    2
   198    80    79    1
   199   209   206    1
   200    79    76    1
   201    75    76    1
   202   206   205    1
   203   206   207    1
   204   200   199    2
   205   215   216    1
   206   215   214    1
   207   205   199   am
   208   199   198    1
   209   198   197    1
   210   217   216    2
   211    76    77    1
   212   208   207    2
   213    77    78    2
