@<TRIPOS>MOLECULE
tmp/2h4gA00.pdb
 113 107 0 0 0
SMALL
GASTEIGER

@<TRIPOS>ATOM
      1  N         38.6700    9.1060    1.8090 N.3    45  TYR45      -0.1241
      2  CA        39.7810    8.6390    0.9840 C.3    45  TYR45       0.1605
      3  C         39.9160    7.1160    1.0280 C.2    45  TYR45       0.2264
      4  O         40.0030    6.5010    2.0920 O.2    45  TYR45      -0.2867
      5  CB        41.0900    9.2860    1.4510 C.3    45  TYR45       0.0534
      6  CG        41.0910   10.7930    1.3230 C.ar   45  TYR45      -0.0201
      7  CD1       41.1620   11.4060    0.0700 C.ar   45  TYR45      -0.0009
      8  CD2       40.9610   11.6090    2.4500 C.ar   45  TYR45      -0.0009
      9  CE1       41.1000   12.7960   -0.0610 C.ar   45  TYR45       0.0417
     10  CE2       40.8930   13.0010    2.3310 C.ar   45  TYR45       0.0417
     11  CZ        40.9610   13.5860    1.0710 C.ar   45  TYR45       0.1957
     12  OH        40.8750   14.9550    0.9410 O.3    45  TYR45      -0.2866
     13  N         42.4450    5.2870    0.2510 N.3    47  ASP47      -0.1225
     14  CA        43.7290    4.8660    0.8050 C.3    47  ASP47       0.1805
     15  C         44.0190    5.2980    2.2400 C.2    47  ASP47       0.2597
     16  O         45.1320    5.0990    2.7270 O.2    47  ASP47      -0.2718
     17  CB        44.8840    5.3660   -0.0750 C.3    47  ASP47       0.1424
     18  CG        44.7280    4.9830   -1.5400 C.2    47  ASP47       0.3668
     19  OD1       44.2180    3.8750   -1.8350 O.co2  47  ASP47      -0.2456
     20  OD2       45.1370    5.7940   -2.4030 O.co2  47  ASP47      -0.2456
     21  N         43.0450    5.9040    2.9120 N.am   48  VAL48      -0.1980
     22  CA        43.2450    6.3490    4.2910 C.3    48  VAL48       0.1595
     23  C         42.1470    5.7850    5.1860 C.2    48  VAL48       0.2287
     24  O         41.0090    6.2730    5.1890 O.2    48  VAL48      -0.2864
     25  CB        43.2360    7.8870    4.3900 C.3    48  VAL48       0.0276
     26  CG1       43.5360    8.3120    5.8250 C.3    48  VAL48       0.0022
     27  CG2       44.2580    8.4770    3.4340 C.3    48  VAL48       0.0022
     28  N         37.0320   19.7430    0.8750 N.3   119  LYS119     -0.1245
     29  CA        37.7610   18.8420    1.7570 C.3   119  LYS119      0.1561
     30  C         37.0340   18.4680    3.0390 C.2   119  LYS119      0.2260
     31  O         37.5320   17.6510    3.8060 O.2   119  LYS119     -0.2867
     32  CB        39.0970   19.4800    2.1320 C.3   119  LYS119      0.0271
     33  CG        39.9600   19.8600    0.9460 C.3   119  LYS119      0.0035
     34  CD        40.3420   18.6290    0.1430 C.3   119  LYS119      0.0206
     35  CE        41.4670   18.9420   -0.8230 C.3   119  LYS119      0.1093
     36  NZ        42.6550   19.4860   -0.0900 N.3   119  LYS119     -0.1314
     37  N         47.2670   22.4250    2.6230 N.3   180  ASP180     -0.1225
     38  CA        47.2740   20.9690    2.5950 C.3   180  ASP180      0.1805
     39  C         48.6180   20.5190    2.0250 C.2   180  ASP180      0.2597
     40  O         49.1330   21.1220    1.0760 O.2   180  ASP180     -0.2718
     41  CB        46.1070   20.4380    1.7470 C.3   180  ASP180      0.1424
     42  CG        45.9130   21.2200    0.4610 C.2   180  ASP180      0.3668
     43  OD1       45.6950   22.4550    0.5370 O.co2 180  ASP180     -0.2456
     44  OD2       45.9760   20.5970   -0.6250 O.co2 180  ASP180     -0.2456
     45  N         49.1820   19.4660    2.6170 N.am  181  PHE181     -0.1976
     46  CA        50.4810   18.9400    2.2040 C.3   181  PHE181      0.1639
     47  C         51.5400   19.9990    2.4590 C.2   181  PHE181      0.2290
     48  O         52.6620   19.9130    1.9540 O.2   181  PHE181     -0.2864
     49  CB        50.4670   18.5510    0.7220 C.3   181  PHE181      0.0560
     50  CG        49.7120   17.2770    0.4410 C.ar  181  PHE181     -0.0200
     51  CD1       50.2130   16.0480    0.8720 C.ar  181  PHE181     -0.0042
     52  CD2       48.4870   17.3090   -0.2190 C.ar  181  PHE181     -0.0042
     53  CE1       49.5090   14.8750    0.6520 C.ar  181  PHE181     -0.0003
     54  CE2       47.7760   16.1430   -0.4450 C.ar  181  PHE181     -0.0003
     55  CZ        48.2890   14.9210   -0.0060 C.ar  181  PHE181     -0.0000
     56  N         42.2710   17.3220   10.0310 N.3   214  CYS214     -0.1221
     57  CA        42.2280   18.0310    8.7580 C.3   214  CYS214      0.1808
     58  C         41.2120   17.4020    7.8110 C.2   214  CYS214      0.2602
     59  O         40.0340   17.2760    8.1430 O.2   214  CYS214     -0.2717
     60  CB        43.6130   18.0490    8.1080 C.3   214  CYS214      0.0970
     61  SG        44.4720   16.4580    8.1370 S.3   214  CYS214     -0.0800
     62  N         41.6770   17.0090    6.6290 N.am  215  SER215     -0.1938
     63  CA        40.8020   16.4310    5.6160 C.3   215  SER215      0.2055
     64  C         40.8590   14.9070    5.6420 C.2   215  SER215      0.2642
     65  O         39.8290   14.2400    5.7410 O.2   215  SER215     -0.2714
     66  CB        41.1790   16.9470    4.2260 C.3   215  SER215      0.2130
     67  OG        40.2340   16.5320    3.2540 O.3   215  SER215     -0.2179
     68  N         42.0680   14.3630    5.5530 N.am  216  ALA216     -0.1977
     69  CA        42.2740   12.9230    5.6890 C.3   216  ALA216      0.1597
     70  C         42.5300   12.5470    7.1520 C.2   216  ALA216      0.2287
     71  O         42.4330   11.3860    7.5320 O.2   216  ALA216     -0.2864
     72  CB        43.4580   12.4880    4.8310 C.3   216  ALA216      0.0319
     73  N         45.4810   12.9080    8.7850 N.3   218  ILE218     -0.1231
     74  CA        46.8100   12.3450    9.0180 C.3   218  ILE218      0.1692
     75  C         48.0020   13.2640    8.7220 C.2   218  ILE218      0.2593
     76  O         49.0250   13.1800    9.3970 O.2   218  ILE218     -0.2718
     77  CB        47.0060   10.9950    8.2530 C.3   218  ILE218      0.0266
     78  CG1       46.9480   11.2060    6.7430 C.3   218  ILE218      0.0019
     79  CG2       45.9360   10.0120    8.6670 C.3   218  ILE218      0.0020
     80  CD1       47.2160    9.9330    5.9250 C.3   218  ILE218      0.0001
     81  N         47.8810   14.1380    7.7260 N.am  219  GLY219     -0.1942
     82  CA        48.9890   15.0250    7.4020 C.3   219  GLY219      0.2014
     83  C         49.1410   16.0920    8.4620 C.2   219  GLY219      0.2638
     84  O         49.9630   15.9740    9.3780 O.2   219  GLY219     -0.2714
     85  N         48.3310   17.1390    8.3340 N.am  220  ARG220     -0.1977
     86  CA        48.3310   18.2420    9.2830 C.3   220  ARG220      0.1597
     87  C         47.9660   17.7720   10.6990 C.2   220  ARG220      0.2287
     88  O         48.5870   18.1980   11.6680 O.2   220  ARG220     -0.2864
     89  CB        47.3650   19.3320    8.7950 C.3   220  ARG220      0.0334
     90  CG        47.8950   20.0870    7.5810 C.3   220  ARG220      0.0492
     91  CD        46.8530   20.9690    6.9190 C.3   220  ARG220      0.2205
     92  NE        45.8620   20.1980    6.1680 N.pl3 220  ARG220     -0.0865
     93  CZ        44.9280   20.7390    5.3880 C.cat 220  ARG220      0.5346
     94  NH1       44.8560   22.0600    5.2570 N.pl3 220  ARG220      0.1354
     95  NH2       44.0680   19.9630    4.7300 N.pl3 220  ARG220      0.1354
     96  N         53.0580   13.6280    6.4330 N.3   261  GLN261     -0.1245
     97  CA        52.7150   13.2390    5.0710 C.3   261  GLN261      0.1566
     98  C         53.7950   13.6730    4.0850 C.2   261  GLN261      0.2260
     99  O         53.9240   13.1040    3.0010 O.2   261  GLN261     -0.2867
    100  CB        51.3650   13.8330    4.6670 C.3   261  GLN261      0.0367
    101  CG        50.2120   12.8430    4.7130 C.3   261  GLN261      0.0905
    102  CD        50.4470   11.6350    3.8280 C.2   261  GLN261      0.2608
    103  OE1       50.4300   11.7370    2.6010 O.2   261  GLN261     -0.2717
    104  NE2       50.6660   10.4810    4.4480 N.am  261  GLN261     -0.0878
    105  N         56.8320   18.6530    6.6090 N.3   265  GLN265     -0.1245
    106  CA        55.9890   18.7020    7.7960 C.3   265  GLN265      0.1566
    107  C         56.7610   18.0820    8.9510 C.2   265  GLN265      0.2260
    108  O         56.6360   18.5160   10.0920 O.2   265  GLN265     -0.2867
    109  CB        54.6860   17.9330    7.5770 C.3   265  GLN265      0.0367
    110  CG        53.7890   18.5360    6.5120 C.3   265  GLN265      0.0905
    111  CD        52.4560   17.8260    6.3930 C.2   265  GLN265      0.2608
    112  OE1       52.3580   16.6170    6.6190 O.2   265  GLN265     -0.2717
    113  NE2       51.4220   18.5690    6.0160 N.am  265  GLN265     -0.0878
@<TRIPOS>BOND
     1    20    18   ar
     2    19    18   ar
     3    18    17    1
     4    35    36    1
     5    35    34    1
     6    44    42   ar
     7    54    52   ar
     8    54    55   ar
     9    52    50   ar
    10    17    14    1
    11     9     7   ar
    12     9    11   ar
    13    55    53   ar
    14     7     6   ar
    15    34    33    1
    16    13    14    1
    17    50    49    1
    18    50    51   ar
    19    42    43   ar
    20    42    41    1
    21    53    51   ar
    22    49    46    1
    23    14    15    1
    24    28    29    1
    25    12    11    1
    26    33    32    1
    27     2     3    1
    28     2     5    1
    29     2     1    1
    30     3     4    2
    31    11    10   ar
    32    40    39    2
    33     6     5    1
    34     6     8   ar
    35    41    38    1
    36    29    32    1
    37    29    30    1
    38    48    47    2
    39    39    38    1
    40    39    45   am
    41    46    47    1
    42    46    45    1
    43    15    16    2
    44    15    21   am
    45    10     8   ar
    46    38    37    1
    47   103   102    2
    48    21    22    1
    49    99    98    2
    50    30    31    2
    51    67    66    1
    52    27    25    1
    53   102   104   am
    54   102   101    1
    55    98    97    1
    56    66    63    1
    57    22    25    1
    58    22    23    1
    59    25    26    1
    60   100   101    1
    61   100    97    1
    62    95    93    1
    63    72    69    1
    64    97    96    1
    65    23    24    2
    66    94    93    1
    67    93    92    2
    68    68    64   am
    69    68    69    1
    70    63    64    1
    71    63    62    1
    72    64    65    2
    73    69    70    1
    74    80    78    1
    75   113   111   am
    76    92    91    1
    77   111   110    1
    78   111   112    2
    79   110   109    1
    80   105   106    1
    81    62    58   am
    82    78    77    1
    83    91    90    1
    84    70    71    2
    85    82    81    1
    86    82    83    1
    87   109   106    1
    88    90    89    1
    89    81    75   am
    90   106   107    1
    91    58    59    2
    92    58    57    1
    93    60    61    1
    94    60    57    1
    95    77    79    1
    96    77    74    1
    97    85    83   am
    98    85    86    1
    99    83    84    2
   100    75    74    1
   101    75    76    2
   102    57    56    1
   103    73    74    1
   104    89    86    1
   105   107   108    2
   106    86    87    1
   107    87    88    2
