@<TRIPOS>MOLECULE
tmp/2h4iA00.pdb
 86 84 0 0 0
SMALL
GASTEIGER

@<TRIPOS>ATOM
      1  N          6.6240    8.4310   10.8700 N.3   250  VAL250     -0.1245
      2  CA         7.9990    8.8130   10.6100 C.3   250  VAL250      0.1561
      3  C          8.6510    8.8530   11.9800 C.2   250  VAL250      0.2260
      4  O          8.2100    9.5740   12.8740 O.2   250  VAL250     -0.2867
      5  CB         8.0770   10.1810    9.9040 C.3   250  VAL250      0.0252
      6  CG1        6.8100   10.9510   10.1310 C.3   250  VAL250      0.0019
      7  CG2        9.2890   10.9570   10.3960 C.3   250  VAL250      0.0019
      8  N         11.9350    9.1880   14.8020 N.3   252  PRO252     -0.2116
      9  CA        13.1490    9.9890   14.9560 C.3   252  PRO252      0.1372
     10  C         14.3680    9.0560   14.8230 C.2   252  PRO252      0.2244
     11  O         14.3160    7.8830   15.2080 O.2   252  PRO252     -0.2868
     12  CB        12.9890   10.5950   16.3480 C.3   252  PRO252      0.0268
     13  CG        12.1450    9.5810   17.0730 C.3   252  PRO252      0.0207
     14  CD        11.1480    9.1380   16.0490 C.3   252  PRO252      0.0892
     15  N         18.4190   19.9890   22.3880 N.3   314  PRO314     -0.2116
     16  CA        17.1620   19.4120   22.8470 C.3   314  PRO314      0.1372
     17  C         17.2520   18.3760   23.9470 C.2   314  PRO314      0.2244
     18  O         18.2410   17.6510   24.0590 O.2   314  PRO314     -0.2868
     19  CB        16.5820   18.8220   21.5710 C.3   314  PRO314      0.0268
     20  CG        17.7920   18.2270   20.9460 C.3   314  PRO314      0.0207
     21  CD        18.8670   19.3170   21.1520 C.3   314  PRO314      0.0892
     22  N         12.6500   14.6690   25.2220 N.3   317  GLU317     -0.1231
     23  CA        11.2740   14.8260   24.7660 C.3   317  GLU317      0.1699
     24  C         11.2900   15.6520   23.4930 C.2   317  GLU317      0.2592
     25  O         10.5750   15.3510   22.5330 O.2   317  GLU317     -0.2718
     26  CB        10.4250   15.5470   25.8150 C.3   317  GLU317      0.0402
     27  CG        10.3350   14.8640   27.1630 C.3   317  GLU317      0.1161
     28  CD         9.8900   15.8230   28.2460 C.2   317  GLU317      0.3649
     29  OE1       10.5720   16.8510   28.4300 O.co2 317  GLU317     -0.2457
     30  OE2        8.8700   15.5620   28.9170 O.co2 317  GLU317     -0.2457
     31  N         12.1030   16.7020   23.4810 N.am  318  GLU318     -0.1966
     32  CA        12.1780   17.5480   22.3010 C.3   318  GLU318      0.1733
     33  C         12.7360   16.7430   21.1530 C.2   318  GLU318      0.2616
     34  O         12.2210   16.8280   20.0440 O.2   318  GLU318     -0.2715
     35  CB        13.0430   18.7890   22.5540 C.3   318  GLU318      0.0429
     36  CG        12.3300   19.8460   23.3580 C.3   318  GLU318      0.1163
     37  CD        13.2500   20.9340   23.8050 C.2   318  GLU318      0.3649
     38  OE1       14.3290   20.6000   24.3220 O.co2 318  GLU318     -0.2457
     39  OE2       12.8890   22.1140   23.6490 O.co2 318  GLU318     -0.2457
     40  N         13.7750   15.9500   21.4120 N.am  319  TYR319     -0.1960
     41  CA        14.3610   15.1550   20.3460 C.3   319  TYR319      0.1771
     42  C         13.3200   14.1960   19.7780 C.2   319  TYR319      0.2619
     43  O         13.1340   14.1360   18.5670 O.2   319  TYR319     -0.2715
     44  CB        15.5910   14.3630   20.8270 C.3   319  TYR319      0.0574
     45  CG        16.1870   13.5360   19.7130 C.ar  319  TYR319     -0.0198
     46  CD1       17.0830   14.0950   18.8120 C.ar  319  TYR319     -0.0009
     47  CD2       15.7890   12.2180   19.5130 C.ar  319  TYR319     -0.0009
     48  CE1       17.5650   13.3620   17.7430 C.ar  319  TYR319      0.0417
     49  CE2       16.2480   11.4890   18.4520 C.ar  319  TYR319      0.0417
     50  CZ        17.1390   12.0570   17.5680 C.ar  319  TYR319      0.1957
     51  OH        17.6160   11.3280   16.5020 O.3   319  TYR319     -0.2866
     52  N         12.6340   13.4560   20.6450 N.am  320  LEU320     -0.1963
     53  CA        11.6430   12.5000   20.1680 C.3   320  LEU320      0.1728
     54  C         10.3840   13.1770   19.6320 C.2   320  LEU320      0.2617
     55  O          9.6670   12.5920   18.8110 O.2   320  LEU320     -0.2715
     56  CB        11.2530   11.5060   21.2680 C.3   320  LEU320      0.0311
     57  CG        12.3490   10.6430   21.9010 C.3   320  LEU320      0.0022
     58  CD1       11.7340    9.8200   23.0330 C.3   320  LEU320      0.0001
     59  CD2       12.9910    9.7300   20.8740 C.3   320  LEU320      0.0001
     60  N         10.1100   14.4030   20.0700 N.am  321  GLY321     -0.1940
     61  CA         8.9170   15.0760   19.5830 C.3   321  GLY321      0.2014
     62  C          7.6830   14.7430   20.3950 C.2   321  GLY321      0.2640
     63  O          7.5140   13.6080   20.8280 O.2   321  GLY321     -0.2714
     64  N          6.8030   15.7250   20.5760 N.am  322  THR322     -0.1936
     65  CA         5.5870   15.5340   21.3720 C.3   322  THR322      0.2028
     66  C          4.7410   14.4100   20.8270 C.2   322  THR322      0.2642
     67  O          4.1150   13.6700   21.5800 O.2   322  THR322     -0.2714
     68  CB         4.6900   16.7940   21.4140 C.3   322  THR322      0.1808
     69  OG1        5.4090   17.9300   20.9280 O.3   322  THR322     -0.2208
     70  CG2        4.2430   17.0670   22.8450 C.3   322  THR322      0.0379
     71  N          4.7250   14.3050   19.5050 N.am  323  GLU323     -0.1976
     72  CA         3.9720   13.2810   18.7990 C.3   323  GLU323      0.1602
     73  C          4.2070   11.9020   19.3810 C.2   323  GLU323      0.2287
     74  O          3.3210   11.2900   19.9960 O.2   323  GLU323     -0.2864
     75  CB         4.3730   13.2600   17.3180 C.3   323  GLU323      0.0415
     76  CG         3.6110   14.2550   16.4750 C.3   323  GLU323      0.1163
     77  CD         2.1350   13.9010   16.3720 C.2   323  GLU323      0.3649
     78  OE1        1.5640   13.4190   17.3760 O.co2 323  GLU323     -0.2457
     79  OE2        1.5420   14.1150   15.2920 O.co2 323  GLU323     -0.2457
     80  N          6.2630   10.9550   21.8940 N.3   325  VAL325     -0.1245
     81  CA         6.2930   10.7780   23.3430 C.3   325  VAL325      0.1561
     82  C          4.8990   10.3980   23.7860 C.2   325  VAL325      0.2260
     83  O          4.7150    9.5630   24.6710 O.2   325  VAL325     -0.2867
     84  CB         6.6490   12.0690   24.1010 C.3   325  VAL325      0.0252
     85  CG1        6.5520   11.8180   25.6010 C.3   325  VAL325      0.0019
     86  CG2        8.0500   12.5130   23.7490 C.3   325  VAL325      0.0019
@<TRIPOS>BOND
     1     5     6    1
     2     5     7    1
     3     5     2    1
     4     2     1    1
     5     2     3    1
     6     3     4    2
     7     8     9    1
     8     8    14    1
     9    10     9    1
    10    10    11    2
    11     9    12    1
    12    79    77   ar
    13    14    13    1
    14    12    13    1
    15    77    76    1
    16    77    78   ar
    17    76    75    1
    18    51    50    1
    19    75    72    1
    20    50    48   ar
    21    50    49   ar
    22    48    46   ar
    23    49    47   ar
    24    43    42    2
    25    72    73    1
    26    72    71    1
    27    55    54    2
    28    46    45   ar
    29    73    74    2
    30    71    66   am
    31    47    45   ar
    32    61    60    1
    33    61    62    1
    34    54    60   am
    35    54    53    1
    36    45    44    1
    37    42    41    1
    38    42    52   am
    39    34    33    2
    40    53    52    1
    41    53    56    1
    42    41    44    1
    43    41    40    1
    44    62    64   am
    45    62    63    2
    46    64    65    1
    47    66    65    1
    48    66    67    2
    49    59    57    1
    50    69    68    1
    51    20    21    1
    52    20    19    1
    53    21    15    1
    54    33    40   am
    55    33    32    1
    56    56    57    1
    57    65    68    1
    58    68    70    1
    59    19    16    1
    60    80    81    1
    61    57    58    1
    62    32    35    1
    63    32    31    1
    64    15    16    1
    65    25    24    2
    66    35    36    1
    67    16    17    1
    68    81    82    1
    69    81    84    1
    70    36    37    1
    71    31    24   am
    72    24    23    1
    73    39    37   ar
    74    86    84    1
    75    82    83    2
    76    37    38   ar
    77    17    18    2
    78    84    85    1
    79    23    22    1
    80    23    26    1
    81    26    27    1
    82    27    28    1
    83    28    29   ar
    84    28    30   ar
