@<TRIPOS>MOLECULE
tmp/2h4lA00.pdb
 156 146 0 0 0
SMALL
GASTEIGER

@<TRIPOS>ATOM
      1  N        -44.4140   -8.3320   10.7380 N.3     9  TYR9       -0.1241
      2  CA       -44.8880   -9.2920    9.7370 C.3     9  TYR9        0.1605
      3  C        -45.7670   -8.6520    8.6620 C.2     9  TYR9        0.2264
      4  O        -45.8120   -9.1290    7.5290 O.2     9  TYR9       -0.2867
      5  CB       -45.6700  -10.4430   10.3840 C.3     9  TYR9        0.0534
      6  CG       -45.1300  -10.9900   11.6820 C.ar    9  TYR9       -0.0201
      7  CD1      -43.7880  -11.3240   11.8210 C.ar    9  TYR9       -0.0009
      8  CD2      -45.9840  -11.2210   12.7640 C.ar    9  TYR9       -0.0009
      9  CE1      -43.2950  -11.8420   13.0230 C.ar    9  TYR9        0.0417
     10  CE2      -45.5080  -11.7450   13.9630 C.ar    9  TYR9        0.0417
     11  CZ       -44.1620  -12.0510   14.0830 C.ar    9  TYR9        0.1957
     12  OH       -43.6830  -12.5710   15.2550 O.3     9  TYR9       -0.2866
     13  N        -51.1700   -3.7750   10.6970 N.3    12  ARG12      -0.1245
     14  CA       -52.2990   -4.1170   11.5680 C.3    12  ARG12       0.1563
     15  C        -52.9030   -2.8810   12.2270 C.2    12  ARG12       0.2260
     16  O        -52.2590   -2.2270   13.0440 O.2    12  ARG12      -0.2867
     17  CB       -51.8640   -5.1450   12.6300 C.3    12  ARG12       0.0307
     18  CG       -51.9360   -6.5880   12.1450 C.3    12  ARG12       0.0489
     19  CD       -51.1590   -7.5830   12.9910 C.3    12  ARG12       0.2205
     20  NE       -50.6850   -8.6630   12.1260 N.pl3  12  ARG12      -0.0865
     21  CZ       -51.1010   -9.9320   12.1460 C.cat  12  ARG12       0.5346
     22  NH1      -51.9960  -10.3540   13.0330 N.pl3  12  ARG12       0.1354
     23  NH2      -50.5940  -10.7960   11.2700 N.pl3  12  ARG12       0.1354
     24  N        -57.2610  -12.7620   13.0880 N.3   100  HIS100     -0.1241
     25  CA       -58.0770  -13.4200   14.1200 C.3   100  HIS100      0.1621
     26  C        -58.6460  -12.4130   15.1320 C.2   100  HIS100      0.2264
     27  O        -59.2870  -12.7990   16.1170 O.2   100  HIS100     -0.2867
     28  CB       -57.2170  -14.4500   14.8610 C.3   100  HIS100      0.0745
     29  CG       -56.1510  -13.8360   15.7180 C.ar  100  HIS100      0.0817
     30  ND1      -54.9320  -13.4310   15.2170 N.ar  100  HIS100     -0.2268
     31  CD2      -56.1330  -13.5330   17.0400 C.ar  100  HIS100      0.1154
     32  CE1      -54.2050  -12.9120   16.1930 C.ar  100  HIS100      0.1986
     33  NE2      -54.9110  -12.9610   17.3090 N.ar  100  HIS100     -0.2212
     34  N        -51.7710   -7.8900    4.5960 N.3   109  LYS109     -0.1245
     35  CA       -50.6850   -8.8280    4.3610 C.3   109  LYS109      0.1561
     36  C        -50.2130   -8.6630    2.9090 C.2   109  LYS109      0.2260
     37  O        -51.0200   -8.6540    1.9700 O.2   109  LYS109     -0.2867
     38  CB       -51.1350  -10.2500    4.6890 C.3   109  LYS109      0.0271
     39  CG       -51.3030  -10.4580    6.1960 C.3   109  LYS109      0.0035
     40  CD       -52.1900  -11.6380    6.5610 C.3   109  LYS109      0.0206
     41  CE       -52.2310  -11.8080    8.0780 C.3   109  LYS109      0.1093
     42  NZ       -53.0970  -12.9330    8.5500 N.3   109  LYS109     -0.1314
     43  N        -54.9100  -19.9520    9.4370 N.3   238  ARG238     -0.1245
     44  CA       -54.6580  -20.7970   10.6070 C.3   238  ARG238      0.1563
     45  C        -55.6930  -21.9210   10.7190 C.2   238  ARG238      0.2260
     46  O        -56.8850  -21.7110   10.4450 O.2   238  ARG238     -0.2867
     47  CB       -54.6930  -19.9730   11.8840 C.3   238  ARG238      0.0307
     48  CG       -53.7060  -18.8410   11.9100 C.3   238  ARG238      0.0489
     49  CD       -53.1420  -18.6450   13.2930 C.3   238  ARG238      0.2205
     50  NE       -54.1600  -18.5510   14.3280 N.pl3 238  ARG238     -0.0865
     51  CZ       -54.6910  -17.4040   14.7450 C.cat 238  ARG238      0.5346
     52  NH1      -54.3100  -16.2530   14.2000 N.pl3 238  ARG238      0.1354
     53  NH2      -55.6110  -17.4050   15.7010 N.pl3 238  ARG238      0.1354
     54  N        -41.4470  -21.6910   19.0940 N.3   276  LYS276     -0.1245
     55  CA       -42.5070  -22.0550   20.0420 C.3   276  LYS276      0.1561
     56  C        -42.8490  -23.5450   20.0340 C.2   276  LYS276      0.2260
     57  O        -43.6080  -24.0090   20.8820 O.2   276  LYS276     -0.2867
     58  CB       -43.7690  -21.2290   19.7740 C.3   276  LYS276      0.0271
     59  CG       -43.8300  -19.9330   20.5280 C.3   276  LYS276      0.0035
     60  CD       -44.3020  -18.7990   19.6520 C.3   276  LYS276      0.0206
     61  CE       -45.7920  -18.5600   19.7860 C.3   276  LYS276      0.1093
     62  NZ       -46.1520  -17.1360   19.4660 N.3   276  LYS276     -0.1314
     63  N        -40.7760  -16.9220   14.8580 N.3   297  THR297     -0.1203
     64  CA       -42.2370  -16.8430   14.8020 C.3   297  THR297      0.1994
     65  C        -42.6200  -15.7800   13.7860 C.2   297  THR297      0.2618
     66  O        -41.9070  -14.7810   13.6440 O.2   297  THR297     -0.2717
     67  CB       -42.7900  -16.4670   16.1980 C.3   297  THR297      0.1784
     68  OG1      -42.5990  -17.5720   17.0880 O.3   297  THR297     -0.2211
     69  CG2      -44.2690  -16.0840   16.1610 C.3   297  THR297      0.0376
     70  N        -43.7150  -16.0060   13.0610 N.am  298  GLY298     -0.1942
     71  CA       -44.2580  -15.0050   12.1430 C.3   298  GLY298      0.2014
     72  C        -44.3000  -15.4900   10.7150 C.2   298  GLY298      0.2638
     73  O        -43.2780  -15.8900   10.1720 O.2   298  GLY298     -0.2714
     74  N        -45.4870  -15.4290   10.1140 N.am  299  HIS299     -0.1973
     75  CA       -45.7440  -15.9890    8.7840 C.3   299  HIS299      0.1656
     76  C        -44.7780  -15.5070    7.6850 C.2   299  HIS299      0.2291
     77  O        -44.2680  -16.3190    6.9120 O.2   299  HIS299     -0.2864
     78  CB       -47.2240  -15.8060    8.3770 C.3   299  HIS299      0.0771
     79  CG       -47.6030  -14.3880    8.0850 C.ar  299  HIS299      0.0820
     80  ND1      -47.6550  -13.8810    6.8010 N.ar  299  HIS299     -0.2267
     81  CD2      -47.9230  -13.3620    8.9100 C.ar  299  HIS299      0.1154
     82  CE1      -48.0020  -12.6060    6.8490 C.ar  299  HIS299      0.1986
     83  NE2      -48.1740  -12.2670    8.1160 N.ar  299  HIS299     -0.2212
     84  N        -45.9470  -23.3050   12.3130 N.3   316  GLU316     -0.1245
     85  CA       -45.8520  -22.3970   13.4580 C.3   316  GLU316      0.1567
     86  C        -46.7670  -22.9040   14.5540 C.2   316  GLU316      0.2260
     87  O        -47.7940  -23.5030   14.2620 O.2   316  GLU316     -0.2867
     88  CB       -46.4140  -21.0400   13.0710 C.3   316  GLU316      0.0388
     89  CG       -45.4780  -20.0840   12.4230 C.3   316  GLU316      0.1160
     90  CD       -46.0400  -18.6890   12.4760 C.2   316  GLU316      0.3649
     91  OE1      -46.2580  -18.1950   13.5990 O.co2 316  GLU316     -0.2457
     92  OE2      -46.2800  -18.1000   11.4020 O.co2 316  GLU316     -0.2457
     93  N        -48.7270  -21.0980   16.3240 N.3   318  SER318     -0.1217
     94  CA       -49.9930  -20.3610   16.1750 C.3   318  SER318      0.1889
     95  C        -51.0390  -21.0580   15.2940 C.2   318  SER318      0.2288
     96  O        -52.2270  -20.7810   15.4290 O.2   318  SER318     -0.2866
     97  CB       -49.7410  -18.9530   15.6220 C.3   318  SER318      0.2089
     98  OG       -49.1770  -19.0150   14.3220 O.3   318  SER318     -0.2183
     99  N        -50.2990  -21.6440   11.7210 N.3   320  HIS320     -0.1241
    100  CA       -49.9250  -21.4170   10.3370 C.3   320  HIS320      0.1621
    101  C        -49.1530  -22.6360    9.8810 C.2   320  HIS320      0.2264
    102  O        -48.2070  -23.0670   10.5600 O.2   320  HIS320     -0.2867
    103  CB       -49.0610  -20.1700   10.1890 C.3   320  HIS320      0.0745
    104  CG       -49.7920  -18.8900   10.4370 C.ar  320  HIS320      0.0817
    105  ND1      -50.2470  -18.0820    9.4150 N.ar  320  HIS320     -0.2268
    106  CD2      -50.1390  -18.2730   11.5900 C.ar  320  HIS320      0.1154
    107  CE1      -50.8450  -17.0210    9.9310 C.ar  320  HIS320      0.1986
    108  NE2      -50.7940  -17.1130   11.2470 N.ar  320  HIS320     -0.2212
    109  N        -48.6280  -21.2580   26.1890 N.3   366  GLU366     -0.1245
    110  CA       -47.9500  -19.9950   25.9440 C.3   366  GLU366      0.1567
    111  C        -48.2640  -18.9850   27.0660 C.2   366  GLU366      0.2260
    112  O        -49.4290  -18.7660   27.4020 O.2   366  GLU366     -0.2867
    113  CB       -48.3760  -19.4610   24.5860 C.3   366  GLU366      0.0388
    114  CG       -47.7410  -18.1640   24.2230 C.3   366  GLU366      0.1160
    115  CD       -48.1350  -17.6990   22.8390 C.2   366  GLU366      0.3649
    116  OE1      -48.0350  -18.5230   21.8920 O.co2 366  GLU366     -0.2457
    117  OE2      -48.5320  -16.5060   22.7110 O.co2 366  GLU366     -0.2457
    118  N        -39.3080  -14.5830   24.3030 N.3   412  ARG412     -0.1245
    119  CA       -39.1180  -13.7280   23.1240 C.3   412  ARG412      0.1563
    120  C        -40.1340  -12.5950   23.1700 C.2   412  ARG412      0.2260
    121  O        -41.1460  -12.6900   23.8690 O.2   412  ARG412     -0.2867
    122  CB       -39.3020  -14.5270   21.8270 C.3   412  ARG412      0.0307
    123  CG       -40.6880  -15.1510   21.7000 C.3   412  ARG412      0.0489
    124  CD       -40.9120  -15.8610   20.3760 C.3   412  ARG412      0.2205
    125  NE       -41.1160  -14.9510   19.2440 N.pl3 412  ARG412     -0.0865
    126  CZ       -42.2290  -14.2620   19.0020 C.cat 412  ARG412      0.5346
    127  NH1      -43.2710  -14.3250   19.8310 N.pl3 412  ARG412      0.1354
    128  NH2      -42.2960  -13.4950   17.9260 N.pl3 412  ARG412      0.1354
    129  N        -43.0400  -10.4940   21.4750 N.3   414  SER414     -0.1202
    130  CA       -44.1050  -10.4720   20.4740 C.3   414  SER414      0.2020
    131  C        -43.8500   -9.4040   19.4100 C.2   414  SER414      0.2619
    132  O        -43.2220   -8.3710   19.6810 O.2   414  SER414     -0.2717
    133  CB       -45.4460  -10.1990   21.1650 C.3   414  SER414      0.2103
    134  OG       -46.4600   -9.8700   20.2410 O.3   414  SER414     -0.2182
    135  N        -44.3360   -9.6550   18.1980 N.am  415  ASN415     -0.1960
    136  CA       -44.3200   -8.6430   17.1370 C.3   415  ASN415      0.1819
    137  C        -45.7330   -8.1600   16.7890 C.2   415  ASN415      0.2621
    138  O        -45.9860   -7.6370   15.6920 O.2   415  ASN415     -0.2715
    139  CB       -43.5980   -9.1750   15.8980 C.3   415  ASN415      0.1195
    140  CG       -42.1310   -9.4340   16.1500 C.2   415  ASN415      0.2630
    141  OD1      -41.6990  -10.5840   16.2000 O.2   415  ASN415     -0.2716
    142  ND2      -41.3600   -8.3680   16.3440 N.am  415  ASN415     -0.0877
    143  N        -46.6580   -8.3480   17.7280 N.am  416  THR416     -0.1951
    144  CA       -48.0080   -7.8240   17.5760 C.3   416  THR416      0.1897
    145  C        -48.4140   -7.0000   18.7890 C.2   416  THR416      0.2313
    146  O        -49.2240   -6.0810   18.6690 O.2   416  THR416     -0.2863
    147  CB       -49.0610   -8.9400   17.3100 C.3   416  THR416      0.1794
    148  OG1      -49.1020   -9.8490   18.4170 O.3   416  THR416     -0.2208
    149  CG2      -48.7520   -9.7100   16.0050 C.3   416  THR416      0.0378
    150  N        -43.3050  -13.2940   25.3040 N.3   421  VAL421     -0.1245
    151  CA       -43.9830  -14.5640   25.0770 C.3   421  VAL421      0.1561
    152  C        -43.0640  -15.6860   25.5680 C.2   421  VAL421      0.2260
    153  O        -41.8970  -15.7560   25.1730 O.2   421  VAL421     -0.2867
    154  CB       -44.3180  -14.7560   23.5670 C.3   421  VAL421      0.0252
    155  CG1      -45.0310  -16.0670   23.3300 C.3   421  VAL421      0.0019
    156  CG2      -45.1420  -13.5630   23.0090 C.3   421  VAL421      0.0019
@<TRIPOS>BOND
     1    37    36    2
     2    36    35    1
     3    35    34    1
     4    35    38    1
     5    38    39    1
     6    39    40    1
     7    40    41    1
     8    80    82   ar
     9    80    79   ar
    10    82    83   ar
    11    77    76    2
    12     4     3    2
    13    76    75    1
    14    41    42    1
    15    79    78    1
    16    79    81   ar
    17    83    81   ar
    18    78    75    1
    19     3     2    1
    20    75    74    1
    21   105   107   ar
    22   105   104   ar
    23    43    44    1
    24     2     5    1
    25     2     1    1
    26   101   100    1
    27   101   102    2
    28   107   108   ar
    29    74    72   am
    30    73    72    2
    31   103   100    1
    32   103   104    1
    33   100    99    1
    34     5     6    1
    35   104   106   ar
    36    46    45    2
    37    44    45    1
    38    44    47    1
    39    13    14    1
    40    72    71    1
    41   108   106   ar
    42    23    21    1
    43    92    90   ar
    44    14    15    1
    45    14    17    1
    46     6     7   ar
    47     6     8   ar
    48     7     9   ar
    49    47    48    1
    50    48    49    1
    51    20    21    2
    52    20    19    1
    53    71    70    1
    54    18    17    1
    55    18    19    1
    56    21    22    1
    57    15    16    2
    58    84    85    1
    59    89    90    1
    60    89    88    1
    61    90    91   ar
    62     8    10   ar
    63     9    11   ar
    64    70    65   am
    65    88    85    1
    66    24    25    1
    67    49    50    1
    68    85    86    1
    69    66    65    2
    70    65    64    1
    71    10    11   ar
    72    11    12    1
    73    25    28    1
    74    25    26    1
    75    52    51    1
    76    87    86    2
    77    98    97    1
    78    50    51    2
    79    51    53    1
    80    64    63    1
    81    64    67    1
    82    28    29    1
    83    26    27    2
    84    30    29   ar
    85    30    32   ar
    86    95    96    2
    87    95    94    1
    88    97    94    1
    89   138   137    2
    90    29    31   ar
    91   139   140    1
    92   139   136    1
    93   149   147    1
    94   140   141    2
    95   140   142   am
    96    69    67    1
    97    94    93    1
    98    32    33   ar
    99    67    68    1
   100   137   136    1
   101   137   143   am
   102    31    33   ar
   103   136   135    1
   104   147   144    1
   105   147   148    1
   106   144   143    1
   107   144   145    1
   108   128   126    1
   109   135   131   am
   110   146   145    2
   111   126   125    2
   112   126   127    1
   113    54    55    1
   114   125   124    1
   115   131   132    2
   116   131   130    1
   117    62    61    1
   118    60    61    1
   119    60    59    1
   120    58    55    1
   121    58    59    1
   122    56    55    1
   123    56    57    2
   124   134   133    1
   125   124   123    1
   126   130   133    1
   127   130   129    1
   128   123   122    1
   129   122   119    1
   130   116   115   ar
   131   117   115   ar
   132   115   114    1
   133   156   154    1
   134   119   120    1
   135   119   118    1
   136   120   121    2
   137   155   154    1
   138   154   151    1
   139   114   113    1
   140   113   110    1
   141   151   150    1
   142   151   152    1
   143   153   152    2
   144   110   109    1
   145   110   111    1
   146   111   112    2
