@<TRIPOS>MOLECULE
tmp/2h4tB02.pdb
 136 131 0 0 0
SMALL
GASTEIGER

@<TRIPOS>ATOM
      1  N         13.2670  109.8110   83.5610 N.3   108  ASN108     -0.1240
      2  CA        12.5660  110.9590   84.1000 C.3   108  ASN108      0.1653
      3  C         11.1870  110.3560   84.3740 C.2   108  ASN108      0.2266
      4  O         10.8000  109.3680   83.7370 O.2   108  ASN108     -0.2867
      5  CB        12.4340  112.0720   83.0580 C.3   108  ASN108      0.1155
      6  CG        13.6160  113.0140   83.0650 C.2   108  ASN108      0.2627
      7  OD1       14.1020  113.4040   84.1270 O.2   108  ASN108     -0.2716
      8  ND2       14.0780  113.3970   81.8810 N.am  108  ASN108     -0.0877
      9  N         18.0400  111.8170   95.8330 N.3   305  LEU305     -0.1245
     10  CA        18.8840  111.4950   94.6810 C.3   305  LEU305      0.1561
     11  C         20.0580  110.5810   95.0040 C.2   305  LEU305      0.2260
     12  O         20.4780  109.7870   94.1640 O.2   305  LEU305     -0.2867
     13  CB        19.3930  112.7790   94.0180 C.3   305  LEU305      0.0270
     14  CG        18.2900  113.6210   93.3710 C.3   305  LEU305      0.0019
     15  CD1       18.8800  114.9150   92.8270 C.3   305  LEU305      0.0001
     16  CD2       17.6210  112.8190   92.2600 C.3   305  LEU305      0.0001
     17  N         25.3550  114.7060   94.0190 N.3   415  SER415     -0.1202
     18  CA        25.1830  115.4920   92.8070 C.3   415  SER415      0.2020
     19  C         25.0340  116.9790   93.0650 C.2   415  SER415      0.2619
     20  O         24.8740  117.4180   94.2010 O.2   415  SER415     -0.2717
     21  CB        23.9530  115.0080   92.0410 C.3   415  SER415      0.2103
     22  OG        22.7730  115.2610   92.7820 O.3   415  SER415     -0.2182
     23  N         25.1090  117.7490   91.9880 N.am  416  ILE416     -0.1965
     24  CA        24.9300  119.1860   92.0640 C.3   416  ILE416      0.1727
     25  C         24.1700  119.6080   90.8290 C.2   416  ILE416      0.2616
     26  O         24.1830  118.9260   89.7990 O.2   416  ILE416     -0.2715
     27  CB        26.2600  119.9750   92.1030 C.3   416  ILE416      0.0290
     28  CG1       27.1180  119.6340   90.8800 C.3   416  ILE416      0.0022
     29  CG2       26.9910  119.7050   93.4090 C.3   416  ILE416      0.0023
     30  CD1       28.3650  120.5040   90.7510 C.3   416  ILE416      0.0001
     31  N         23.4830  120.7330   90.9530 N.am  417  GLN417     -0.1977
     32  CA        22.7230  121.2930   89.8570 C.3   417  GLN417      0.1601
     33  C         23.0950  122.7720   89.8170 C.2   417  GLN417      0.2287
     34  O         22.5660  123.5760   90.5870 O.2   417  GLN417     -0.2864
     35  CB        21.2230  121.1140   90.1050 C.3   417  GLN417      0.0394
     36  CG        20.7790  119.6600   90.2250 C.3   417  GLN417      0.0908
     37  CD        19.3260  119.5270   90.6500 C.2   417  GLN417      0.2608
     38  OE1       18.4250  120.0610   90.0010 O.2   417  GLN417     -0.2717
     39  NE2       19.0930  118.8100   91.7480 N.am  417  GLN417     -0.0878
     40  N         26.2480  112.6100   79.2280 N.3   562  LEU562     -0.1245
     41  CA        25.0360  111.8980   78.8510 C.3   562  LEU562      0.1561
     42  C         23.9340  112.9200   78.5990 C.2   562  LEU562      0.2260
     43  O         23.4660  113.5660   79.5350 O.2   562  LEU562     -0.2867
     44  CB        24.6170  110.9520   79.9810 C.3   562  LEU562      0.0270
     45  CG        23.3470  110.1200   79.7750 C.3   562  LEU562      0.0019
     46  CD1       23.5380  109.1640   78.6130 C.3   562  LEU562      0.0001
     47  CD2       23.0360  109.3500   81.0540 C.3   562  LEU562      0.0001
     48  N         16.5210  110.9740   80.1880 N.3   567  VAL567     -0.1231
     49  CA        17.3440  110.7210   81.3620 C.3   567  VAL567      0.1692
     50  C         17.2750  111.7940   82.4330 C.2   567  VAL567      0.2593
     51  O         17.4780  112.9740   82.1620 O.2   567  VAL567     -0.2718
     52  CB        18.8300  110.5270   80.9610 C.3   567  VAL567      0.0266
     53  CG1       19.6990  110.4220   82.1980 C.3   567  VAL567      0.0020
     54  CG2       18.9710  109.2800   80.1170 C.3   567  VAL567      0.0020
     55  N         16.9960  111.3760   83.6610 N.am  568  SER568     -0.1938
     56  CA        16.9290  112.3190   84.7630 C.3   568  SER568      0.2055
     57  C         18.2980  112.3820   85.4240 C.2   568  SER568      0.2643
     58  O         18.7620  113.4500   85.8190 O.2   568  SER568     -0.2714
     59  CB        15.9030  111.8670   85.7970 C.3   568  SER568      0.2130
     60  OG        16.3320  110.6750   86.4250 O.3   568  SER568     -0.2179
     61  N         18.9430  111.2270   85.5230 N.am  569  LEU569     -0.1963
     62  CA        20.2460  111.1240   86.1630 C.3   569  LEU569      0.1728
     63  C         20.9270  109.8160   85.7690 C.2   569  LEU569      0.2616
     64  O         20.2710  108.8790   85.3350 O.2   569  LEU569     -0.2715
     65  CB        20.0470  111.1740   87.6770 C.3   569  LEU569      0.0311
     66  CG        21.2320  111.0030   88.6150 C.3   569  LEU569      0.0022
     67  CD1       22.2950  112.0340   88.2810 C.3   569  LEU569      0.0001
     68  CD2       20.7650  111.1730   90.0500 C.3   569  LEU569      0.0001
     69  N         22.2460  109.7700   85.9020 N.am  570  GLY570     -0.1955
     70  CA        22.9880  108.5670   85.5730 C.3   570  GLY570      0.1869
     71  C         24.2340  108.5070   86.4370 C.2   570  GLY570      0.2309
     72  O         24.5280  109.4650   87.1440 O.2   570  GLY570     -0.2863
     73  N         29.6420  111.6160   86.0830 N.3   583  ALA583     -0.1231
     74  CA        28.6250  111.6290   85.0410 C.3   583  ALA583      0.1694
     75  C         28.0990  113.0610   85.0410 C.2   583  ALA583      0.2592
     76  O         27.7330  113.5990   86.0890 O.2   583  ALA583     -0.2718
     77  CB        27.4970  110.6450   85.3650 C.3   583  ALA583      0.0304
     78  N         28.0710  113.6890   83.8740 N.am  584  TYR584     -0.1962
     79  CA        27.6060  115.0640   83.8110 C.3   584  TYR584      0.1771
     80  C         26.8350  115.3630   82.5420 C.2   584  TYR584      0.2619
     81  O         26.9200  114.6360   81.5500 O.2   584  TYR584     -0.2715
     82  CB        28.7920  116.0310   83.9140 C.3   584  TYR584      0.0574
     83  CG        29.7180  115.9970   82.7150 C.ar  584  TYR584     -0.0198
     84  CD1       30.6280  114.9560   82.5470 C.ar  584  TYR584     -0.0009
     85  CD2       29.6600  116.9890   81.7260 C.ar  584  TYR584     -0.0009
     86  CE1       31.4610  114.8940   81.4320 C.ar  584  TYR584      0.0417
     87  CE2       30.4950  116.9330   80.5940 C.ar  584  TYR584      0.0417
     88  CZ        31.3910  115.8760   80.4650 C.ar  584  TYR584      0.1957
     89  OH        32.2190  115.7810   79.3780 O.3   584  TYR584     -0.2866
     90  N         26.0770  116.4510   82.5890 N.am  585  ALA585     -0.1977
     91  CA        25.2870  116.8820   81.4510 C.3   585  ALA585      0.1597
     92  C         25.1570  118.3920   81.4820 C.2   585  ALA585      0.2287
     93  O         24.8230  118.9750   82.5150 O.2   585  ALA585     -0.2864
     94  CB        23.9060  116.2440   81.4880 C.3   585  ALA585      0.0319
     95  N         23.0630  121.3330   80.2180 N.3   587  HIS587     -0.1241
     96  CA        21.7700  121.6450   79.6340 C.3   587  HIS587      0.1621
     97  C         21.7700  123.0920   79.1360 C.2   587  HIS587      0.2264
     98  O         22.7780  123.7910   79.2450 O.2   587  HIS587     -0.2867
     99  CB        20.6790  121.4110   80.6780 C.3   587  HIS587      0.0745
    100  CG        20.4950  119.9670   81.0310 C.ar  587  HIS587      0.0817
    101  ND1       19.7900  119.0910   80.2340 N.ar  587  HIS587     -0.2268
    102  CD2       20.9660  119.2340   82.0670 C.ar  587  HIS587      0.1154
    103  CE1       19.8330  117.8810   80.7640 C.ar  587  HIS587      0.1986
    104  NE2       20.5410  117.9410   81.8760 N.ar  587  HIS587     -0.2212
    105  N         21.3510  125.0690   82.6580 N.3   590  TRP590     -0.1241
    106  CA        22.0050  124.5660   83.8570 C.3   590  TRP590      0.1605
    107  C         22.9670  123.4360   83.5510 C.2   590  TRP590      0.2264
    108  O         23.0460  122.9580   82.4200 O.2   590  TRP590     -0.2867
    109  CB        20.9750  124.1050   84.8950 C.3   590  TRP590      0.0550
    110  CG        20.1060  122.9580   84.4620 C.ar  590  TRP590      0.0003
    111  CD1       19.1020  122.9940   83.5420 C.ar  590  TRP590      0.0946
    112  CD2       20.1520  121.6100   84.9540 C.ar  590  TRP590      0.0152
    113  NE1       18.5140  121.7550   83.4300 N.ar  590  TRP590     -0.2442
    114  CE2       19.1400  120.8870   84.2850 C.ar  590  TRP590      0.0810
    115  CE3       20.9510  120.9440   85.8950 C.ar  590  TRP590      0.0012
    116  CZ2       18.9020  119.5260   84.5280 C.ar  590  TRP590      0.0191
    117  CZ3       20.7150  119.5910   86.1360 C.ar  590  TRP590      0.0001
    118  CH2       19.6970  118.8980   85.4530 C.ar  590  TRP590      0.0015
    119  N         24.4340  119.6970   85.3150 N.3   592  GLY592     -0.1210
    120  CA        24.3210  118.7100   86.3710 C.3   592  GLY592      0.1956
    121  C         25.4920  117.7470   86.4140 C.2   592  GLY592      0.2612
    122  O         26.0770  117.4310   85.3800 O.2   592  GLY592     -0.2717
    123  N         25.8360  117.2870   87.6160 N.am  593  CYS593     -0.1956
    124  CA        26.9290  116.3320   87.8070 C.3   593  CYS593      0.1843
    125  C         26.5500  115.3290   88.8840 C.2   593  CYS593      0.2625
    126  O         26.0010  115.7100   89.9200 O.2   593  CYS593     -0.2714
    127  CB        28.2080  117.0230   88.2820 C.3   593  CYS593      0.0997
    128  SG        28.8740  118.2920   87.2290 S.3   593  CYS593     -0.0797
    129  N         26.8400  114.0560   88.6370 N.am  594  ASN594     -0.1972
    130  CA        26.5920  113.0070   89.6240 C.3   594  ASN594      0.1688
    131  C         27.9730  112.3740   89.7780 C.2   594  ASN594      0.2292
    132  O         28.5060  111.7650   88.8430 O.2   594  ASN594     -0.2864
    133  CB        25.5830  111.9790   89.1140 C.3   594  ASN594      0.1181
    134  CG        24.9270  111.2030   90.2460 C.2   594  ASN594      0.2629
    135  OD1       24.4220  110.0890   90.0530 O.2   594  ASN594     -0.2716
    136  ND2       24.9130  111.7970   91.4300 N.am  594  ASN594     -0.0877
@<TRIPOS>BOND
     1    42    41    1
     2    42    43    2
     3    46    45    1
     4    41    40    1
     5    41    44    1
     6    97    98    2
     7    97    96    1
     8    89    88    1
     9    96    95    1
    10    96    99    1
    11    45    44    1
    12    45    47    1
    13    54    52    1
    14    48    49    1
    15   101   103   ar
    16   101   100   ar
    17    88    87   ar
    18    88    86   ar
    19    87    85   ar
    20    99   100    1
    21   103   104   ar
    22    52    49    1
    23    52    53    1
    24   100   102   ar
    25    49    50    1
    26    86    84   ar
    27    91    92    1
    28    91    94    1
    29    91    90    1
    30    92    93    2
    31    81    80    2
    32    85    83   ar
    33   104   102   ar
    34     8     6   am
    35    51    50    2
    36   108   107    2
    37    50    55   am
    38    80    90   am
    39    80    79    1
    40    84    83   ar
    41   105   106    1
    42    83    82    1
    43     5     6    1
    44     5     2    1
    45     6     7    2
    46   113   111   ar
    47   113   114   ar
    48   111   110   ar
    49   107   106    1
    50     1     2    1
    51    55    56    1
    52     4     3    2
    53    79    78    1
    54    79    82    1
    55   106   109    1
    56    78    75   am
    57     2     3    1
    58   114   116   ar
    59   114   112   ar
    60   110   109    1
    61   110   112   ar
    62   116   118   ar
    63    56    57    1
    64    56    59    1
    65   112   115   ar
    66    74    75    1
    67    74    77    1
    68    74    73    1
    69    75    76    2
    70   119   120    1
    71    64    63    2
    72   122   121    2
    73    57    61   am
    74    57    58    2
    75   118   117   ar
    76    61    62    1
    77    70    69    1
    78    70    71    1
    79    63    69   am
    80    63    62    1
    81    59    60    1
    82   115   117   ar
    83    62    65    1
    84   120   121    1
    85   121   123   am
    86    71    72    2
    87   128   127    1
    88   123   124    1
    89    65    66    1
    90   124   127    1
    91   124   125    1
    92    67    66    1
    93    66    68    1
    94   129   125   am
    95   129   130    1
    96   132   131    2
    97   125   126    2
    98   133   130    1
    99   133   134    1
   100   130   131    1
   101    26    25    2
   102    33    32    1
   103    33    34    2
   104    32    35    1
   105    32    31    1
   106    38    37    2
   107   135   134    2
   108    35    36    1
   109    36    37    1
   110   134   136   am
   111    37    39   am
   112    30    28    1
   113    25    31   am
   114    25    24    1
   115    28    27    1
   116    23    24    1
   117    23    19   am
   118    21    22    1
   119    21    18    1
   120    24    27    1
   121    27    29    1
   122    16    14    1
   123    18    19    1
   124    18    17    1
   125    15    14    1
   126    19    20    2
   127    14    13    1
   128    13    10    1
   129    12    11    2
   130    10    11    1
   131    10     9    1
