@<TRIPOS>MOLECULE
tmp/2h4tB00.pdb
 107 99 0 0 0
SMALL
GASTEIGER

@<TRIPOS>ATOM
      1  N         23.5540  110.0480   63.0600 N.3   146  PHE146     -0.1241
      2  CA        23.8750  111.3370   63.6600 C.3   146  PHE146      0.1605
      3  C         23.7240  112.3780   62.5500 C.2   146  PHE146      0.2264
      4  O         24.3930  112.2900   61.5210 O.2   146  PHE146     -0.2867
      5  CB        25.3100  111.3620   64.1870 C.3   146  PHE146      0.0534
      6  CG        25.7090  112.6890   64.7570 C.ar  146  PHE146     -0.0203
      7  CD1       25.3020  113.0620   66.0350 C.ar  146  PHE146     -0.0042
      8  CD2       26.4350  113.5940   63.9950 C.ar  146  PHE146     -0.0042
      9  CE1       25.6090  114.3240   66.5440 C.ar  146  PHE146     -0.0003
     10  CE2       26.7480  114.8590   64.4940 C.ar  146  PHE146     -0.0003
     11  CZ        26.3330  115.2230   65.7700 C.ar  146  PHE146     -0.0000
     12  N         24.0160  116.3220   61.2790 N.3   148  LEU148     -0.1245
     13  CA        24.6320  117.6170   61.5590 C.3   148  LEU148      0.1561
     14  C         23.5420  118.6760   61.4360 C.2   148  LEU148      0.2260
     15  O         23.6590  119.7780   61.9690 O.2   148  LEU148     -0.2867
     16  CB        25.7640  117.9080   60.5700 C.3   148  LEU148      0.0270
     17  CG        27.0380  117.0810   60.7710 C.3   148  LEU148      0.0019
     18  CD1       28.0380  117.3960   59.6750 C.3   148  LEU148      0.0001
     19  CD2       27.6340  117.3890   62.1330 C.3   148  LEU148      0.0001
     20  N         25.5110  110.9570   59.4210 N.3   180  TYR180     -0.1241
     21  CA        26.4640  109.8910   59.6820 C.3   180  TYR180      0.1605
     22  C         25.8630  108.6760   60.3690 C.2   180  TYR180      0.2264
     23  O         25.6560  108.6760   61.5860 O.2   180  TYR180     -0.2867
     24  CB        27.6250  110.4280   60.5190 C.3   180  TYR180      0.0534
     25  CG        28.3980  111.5240   59.8280 C.ar  180  TYR180     -0.0201
     26  CD1       27.9310  112.8400   59.8170 C.ar  180  TYR180     -0.0009
     27  CD2       29.5790  111.2370   59.1450 C.ar  180  TYR180     -0.0009
     28  CE1       28.6230  113.8460   59.1380 C.ar  180  TYR180      0.0417
     29  CE2       30.2800  112.2290   58.4630 C.ar  180  TYR180      0.0417
     30  CZ        29.7970  113.5320   58.4620 C.ar  180  TYR180      0.1957
     31  OH        30.4940  114.5070   57.7830 O.3   180  TYR180     -0.2866
     32  N         25.4320  105.1440   62.1890 N.3   182  LEU182     -0.1245
     33  CA        26.2890  104.5350   63.1970 C.3   182  LEU182      0.1561
     34  C         26.1760  103.0210   63.1760 C.2   182  LEU182      0.2260
     35  O         25.1940  102.4590   62.6800 O.2   182  LEU182     -0.2867
     36  CB        25.9300  105.0470   64.5970 C.3   182  LEU182      0.0270
     37  CG        25.8660  106.5620   64.7870 C.3   182  LEU182      0.0019
     38  CD1       25.5080  106.8670   66.2320 C.3   182  LEU182      0.0001
     39  CD2       27.2050  107.1920   64.4330 C.3   182  LEU182      0.0001
     40  N         28.9330   99.2710   73.9020 N.3   346  ASP346     -0.1225
     41  CA        29.3390  100.6010   74.3280 C.3   346  ASP346      0.1805
     42  C         28.2130  101.4670   74.8810 C.2   346  ASP346      0.2598
     43  O         28.3830  102.6680   75.0890 O.2   346  ASP346     -0.2718
     44  CB        30.0390  101.2900   73.1630 C.3   346  ASP346      0.1424
     45  CG        31.1360  100.4270   72.5740 C.2   346  ASP346      0.3668
     46  OD1       32.0470  100.0340   73.3270 O.co2 346  ASP346     -0.2456
     47  OD2       31.0850  100.1340   71.3610 O.co2 346  ASP346     -0.2456
     48  N         27.0590  100.8550   75.1230 N.am  347  GLY347     -0.1942
     49  CA        25.9490  101.5930   75.6960 C.3   347  GLY347      0.2014
     50  C         25.1030  102.4450   74.7680 C.2   347  GLY347      0.2638
     51  O         24.0870  102.9790   75.2030 O.2   347  GLY347     -0.2714
     52  N         25.5030  102.5940   73.5090 N.am  348  VAL348     -0.1977
     53  CA        24.7090  103.3930   72.5800 C.3   348  VAL348      0.1596
     54  C         23.3580  102.7030   72.3700 C.2   348  VAL348      0.2287
     55  O         22.3210  103.3560   72.3040 O.2   348  VAL348     -0.2864
     56  CB        25.4160  103.5590   71.2170 C.3   348  VAL348      0.0276
     57  CG1       24.6130  104.5070   70.3300 C.3   348  VAL348      0.0022
     58  CG2       26.8260  104.0960   71.4180 C.3   348  VAL348      0.0022
     59  N         21.1070  103.4850   75.2450 N.3   351  LEU351     -0.1245
     60  CA        20.5690  104.8330   75.2140 C.3   351  LEU351      0.1561
     61  C         19.4280  104.9190   74.2050 C.2   351  LEU351      0.2260
     62  O         18.4320  105.5930   74.4540 O.2   351  LEU351     -0.2867
     63  CB        21.6660  105.8390   74.8530 C.3   351  LEU351      0.0270
     64  CG        21.2570  107.3130   74.9190 C.3   351  LEU351      0.0019
     65  CD1       20.6180  107.6160   76.2700 C.3   351  LEU351      0.0001
     66  CD2       22.4790  108.1930   74.6980 C.3   351  LEU351      0.0001
     67  N         32.6190  108.3700   71.4040 N.3   460  SER460     -0.1217
     68  CA        32.2290  107.2710   70.5270 C.3   460  SER460      0.1889
     69  C         32.8160  107.2660   69.1240 C.2   460  SER460      0.2288
     70  O         32.8850  108.3050   68.4650 O.2   460  SER460     -0.2866
     71  CB        30.6980  107.2320   70.4070 C.3   460  SER460      0.2089
     72  OG        30.2690  106.2270   69.4940 O.3   460  SER460     -0.2183
     73  N         30.7960  105.7440   64.4680 N.3   463  ALA463     -0.1245
     74  CA        30.5570  106.2030   63.0990 C.3   463  ALA463      0.1562
     75  C         31.2390  105.2340   62.1330 C.2   463  ALA463      0.2260
     76  O         31.0180  105.2810   60.9220 O.2   463  ALA463     -0.2867
     77  CB        31.1150  107.6190   62.9080 C.3   463  ALA463      0.0290
     78  N         36.6200  111.3780   67.8000 N.3   517  THR517     -0.1203
     79  CA        35.4620  110.9090   67.0510 C.3   517  THR517      0.1994
     80  C         35.8870  110.2450   65.7450 C.2   517  THR517      0.2617
     81  O         35.2120  109.3380   65.2410 O.2   517  THR517     -0.2717
     82  CB        34.5110  112.0760   66.7300 C.3   517  THR517      0.1784
     83  OG1       34.0810  112.6840   67.9530 O.3   517  THR517     -0.2211
     84  CG2       33.2980  111.5790   65.9820 C.3   517  THR517      0.0376
     85  N         37.0120  110.7070   65.2030 N.am  518  MET518     -0.1979
     86  CA        37.5420  110.1800   63.9510 C.3   518  MET518      0.1605
     87  C         38.5240  109.0390   64.1560 C.2   518  MET518      0.2287
     88  O         39.1620  108.6010   63.2060 O.2   518  MET518     -0.2864
     89  CB        38.2390  111.2920   63.1640 C.3   518  MET518      0.0413
     90  CG        37.3080  112.3630   62.6380 C.3   518  MET518      0.0598
     91  SD        36.0880  111.6680   61.5080 S.3   518  MET518     -0.1393
     92  CE        34.7010  111.4260   62.6170 C.3   518  MET518      0.0692
     93  N         29.7580  112.1290   79.4870 N.3   561  THR561     -0.1203
     94  CA        28.6300  113.0250   79.3440 C.3   561  THR561      0.1994
     95  C         27.4550  112.1900   78.8670 C.2   561  THR561      0.2617
     96  O         27.6450  111.1830   78.1900 O.2   561  THR561     -0.2717
     97  CB        28.9260  114.1270   78.3210 C.3   561  THR561      0.1784
     98  OG1       27.8640  115.0860   78.3440 O.3   561  THR561     -0.2211
     99  CG2       29.0410  113.5410   76.9220 C.3   561  THR561      0.0376
    100  N         26.2480  112.6100   79.2280 N.am  562  LEU562     -0.1979
    101  CA        25.0360  111.8980   78.8510 C.3   562  LEU562      0.1596
    102  C         23.9340  112.9200   78.5990 C.2   562  LEU562      0.2287
    103  O         23.4660  113.5660   79.5350 O.2   562  LEU562     -0.2864
    104  CB        24.6170  110.9520   79.9810 C.3   562  LEU562      0.0297
    105  CG        23.3470  110.1200   79.7750 C.3   562  LEU562      0.0022
    106  CD1       23.5380  109.1640   78.6130 C.3   562  LEU562      0.0001
    107  CD2       23.0360  109.3500   81.0540 C.3   562  LEU562      0.0001
@<TRIPOS>BOND
     1    31    30    1
     2    30    29   ar
     3    30    28   ar
     4    29    27   ar
     5    28    26   ar
     6    27    25   ar
     7    20    21    1
     8    18    17    1
     9    21    22    1
    10    21    24    1
    11    26    25   ar
    12    25    24    1
    13    22    23    2
    14    16    17    1
    15    16    13    1
    16    17    19    1
    17    76    75    2
    18    12    13    1
    19    14    13    1
    20    14    15    2
    21    91    92    1
    22    91    90    1
    23     4     3    2
    24    75    74    1
    25    32    33    1
    26     3     2    1
    27    90    89    1
    28    35    34    2
    29    77    74    1
    30     1     2    1
    31    74    73    1
    32    89    86    1
    33    34    33    1
    34    33    36    1
    35    88    87    2
    36     2     5    1
    37    86    87    1
    38    86    85    1
    39     8    10   ar
    40     8     6   ar
    41     5     6    1
    42    39    37    1
    43    10    11   ar
    44    36    37    1
    45     6     7   ar
    46    37    38    1
    47    85    80   am
    48    81    80    2
    49    80    79    1
    50    11     9   ar
    51    84    82    1
    52     7     9   ar
    53    82    79    1
    54    82    83    1
    55    79    78    1
    56    70    69    2
    57    69    68    1
    58    72    71    1
    59    57    56    1
    60    71    68    1
    61    68    67    1
    62    56    58    1
    63    56    53    1
    64    47    45   ar
    65    55    54    2
    66    54    53    1
    67    45    44    1
    68    45    46   ar
    69    53    52    1
    70    44    41    1
    71    52    50   am
    72    40    41    1
    73    61    62    2
    74    61    60    1
    75    41    42    1
    76    66    64    1
    77    50    51    2
    78    50    49    1
    79    63    64    1
    80    63    60    1
    81    42    43    2
    82    42    48   am
    83    64    65    1
    84    48    49    1
    85    60    59    1
    86    99    97    1
    87    96    95    2
    88    97    98    1
    89    97    94    1
    90   102   101    1
    91   102   103    2
    92   106   105    1
    93   101   100    1
    94   101   104    1
    95    95   100   am
    96    95    94    1
    97    94    93    1
    98   105   104    1
    99   105   107    1
