@<TRIPOS>MOLECULE
tmp/2h4tB01.pdb
 148 144 0 0 0
SMALL
GASTEIGER

@<TRIPOS>ATOM
      1  N         39.0580   94.8330   72.6990 N.3    86  TRP86      -0.1241
      2  CA        38.3140   95.5270   73.7500 C.3    86  TRP86       0.1605
      3  C         37.3660   94.5640   74.4800 C.2    86  TRP86       0.2264
      4  O         37.3030   94.5640   75.7100 O.2    86  TRP86      -0.2867
      5  CB        37.5450   96.7150   73.1620 C.3    86  TRP86       0.0550
      6  CG        37.2830   97.8140   74.1740 C.ar   86  TRP86       0.0003
      7  CD1       36.0770   98.1620   74.7110 C.ar   86  TRP86       0.0946
      8  CD2       38.2570   98.6830   74.7800 C.ar   86  TRP86       0.0152
      9  NE1       36.2390   99.1930   75.6120 N.ar   86  TRP86      -0.2442
     10  CE2       37.5640   99.5300   75.6750 C.ar   86  TRP86       0.0810
     11  CE3       39.6450   98.8240   74.6540 C.ar   86  TRP86       0.0012
     12  CZ2       38.2120  100.5050   76.4420 C.ar   86  TRP86       0.0191
     13  CZ3       40.2910   99.7930   75.4160 C.ar   86  TRP86       0.0001
     14  CH2       39.5720  100.6220   76.3000 C.ar   86  TRP86       0.0015
     15  N         39.3030   92.2370   76.7230 N.3    89  MET89      -0.1230
     16  CA        39.7570   92.8790   77.9500 C.3    89  MET89       0.1702
     17  C         38.7020   92.7930   79.0530 C.2    89  MET89       0.2592
     18  O         39.0070   92.4180   80.1890 O.2    89  MET89      -0.2718
     19  CB        40.1090   94.3500   77.6750 C.3    89  MET89       0.0401
     20  CG        40.4610   95.1510   78.9210 C.3    89  MET89       0.0596
     21  SD        41.1610   96.7750   78.5500 S.3    89  MET89      -0.1393
     22  CE        39.6740   97.7390   78.2460 C.3    89  MET89       0.0692
     23  N         37.4600   93.1290   78.7220 N.am   90  TYR90      -0.1976
     24  CA        36.4060   93.0920   79.7260 C.3    90  TYR90       0.1639
     25  C         35.8630   91.7100   80.0440 C.2    90  TYR90       0.2290
     26  O         35.4510   91.4650   81.1720 O.2    90  TYR90      -0.2864
     27  CB        35.2580   94.0260   79.3340 C.3    90  TYR90       0.0560
     28  CG        35.6290   95.4750   79.5000 C.ar   90  TYR90      -0.0198
     29  CD1       35.8450   96.2980   78.3920 C.ar   90  TYR90      -0.0009
     30  CD2       35.8190   96.0140   80.7730 C.ar   90  TYR90      -0.0009
     31  CE1       36.2480   97.6290   78.5520 C.ar   90  TYR90       0.0417
     32  CE2       36.2210   97.3370   80.9480 C.ar   90  TYR90       0.0417
     33  CZ        36.4350   98.1380   79.8330 C.ar   90  TYR90       0.1957
     34  OH        36.8410   99.4430   80.0080 O.3    90  TYR90      -0.2866
     35  N         32.3910   98.1020   86.7110 N.3   101  PHE101     -0.1241
     36  CA        32.0000   98.2980   85.3140 C.3   101  PHE101      0.1605
     37  C         30.5610   98.6970   85.0110 C.2   101  PHE101      0.2264
     38  O         30.3230   99.5660   84.1690 O.2   101  PHE101     -0.2867
     39  CB        32.3290   97.0270   84.5210 C.3   101  PHE101      0.0534
     40  CG        33.7220   96.5130   84.7520 C.ar  101  PHE101     -0.0203
     41  CD1       33.9290   95.2930   85.3830 C.ar  101  PHE101     -0.0042
     42  CD2       34.8290   97.2600   84.3590 C.ar  101  PHE101     -0.0042
     43  CE1       35.2270   94.8200   85.6230 C.ar  101  PHE101     -0.0003
     44  CE2       36.1240   96.7980   84.5940 C.ar  101  PHE101     -0.0003
     45  CZ        36.3220   95.5720   85.2300 C.ar  101  PHE101     -0.0000
     46  N         27.1370  100.4920   84.8920 N.3   103  PRO103     -0.2116
     47  CA        26.6440  101.8380   85.1990 C.3   103  PRO103      0.1372
     48  C         25.1060  101.8300   85.1940 C.2   103  PRO103      0.2244
     49  O         24.4900  100.7820   85.0040 O.2   103  PRO103     -0.2868
     50  CB        27.2200  102.6670   84.0590 C.3   103  PRO103      0.0268
     51  CG        27.0390  101.7460   82.8830 C.3   103  PRO103      0.0207
     52  CD        27.3390  100.3380   83.4340 C.3   103  PRO103      0.0892
     53  N         22.8400   98.3220   83.5640 N.3   340  PHE340     -0.1241
     54  CA        23.2250   97.3600   82.5410 C.3   340  PHE340      0.1605
     55  C         24.6480   96.8260   82.6140 C.2   340  PHE340      0.2264
     56  O         25.5440   97.4580   83.1780 O.2   340  PHE340     -0.2867
     57  CB        22.9280   97.9340   81.1470 C.3   340  PHE340      0.0534
     58  CG        23.7080   99.1730   80.8060 C.ar  340  PHE340     -0.0203
     59  CD1       24.8880   99.0880   80.0770 C.ar  340  PHE340     -0.0042
     60  CD2       23.2460  100.4310   81.1860 C.ar  340  PHE340     -0.0042
     61  CE1       25.5970  100.2310   79.7260 C.ar  340  PHE340     -0.0003
     62  CE2       23.9490  101.5840   80.8410 C.ar  340  PHE340     -0.0003
     63  CZ        25.1280  101.4840   80.1070 C.ar  340  PHE340     -0.0000
     64  N         28.1880   96.0660   81.4390 N.3   342  HIS342     -0.1241
     65  CA        29.1570   96.7850   80.6200 C.3   342  HIS342      0.1621
     66  C         29.8530   96.0930   79.4470 C.2   342  HIS342      0.2264
     67  O         30.0880   96.7150   78.4180 O.2   342  HIS342     -0.2867
     68  CB        30.2340   97.3570   81.5480 C.3   342  HIS342      0.0745
     69  CG        31.3420   98.0640   80.8310 C.ar  342  HIS342      0.0817
     70  ND1       32.5830   97.4950   80.6330 N.ar  342  HIS342     -0.2268
     71  CD2       31.4060   99.3050   80.2910 C.ar  342  HIS342      0.1154
     72  CE1       33.3630   98.3550   80.0030 C.ar  342  HIS342      0.1986
     73  NE2       32.6720   99.4610   79.7830 N.ar  342  HIS342     -0.2212
     74  N         40.0720  110.9590   82.0250 N.3   456  TYR456     -0.1241
     75  CA        39.4860  110.2110   80.9230 C.3   456  TYR456      0.1605
     76  C         38.0840  110.7320   80.6340 C.2   456  TYR456      0.2264
     77  O         37.3010  110.9550   81.5600 O.2   456  TYR456     -0.2867
     78  CB        39.4210  108.7300   81.3340 C.3   456  TYR456      0.0534
     79  CG        38.8320  107.7700   80.3200 C.ar  456  TYR456     -0.0201
     80  CD1       39.6170  106.7680   79.7470 C.ar  456  TYR456     -0.0009
     81  CD2       37.4910  107.8460   79.9510 C.ar  456  TYR456     -0.0009
     82  CE1       39.0780  105.8610   78.8260 C.ar  456  TYR456      0.0417
     83  CE2       36.9400  106.9500   79.0330 C.ar  456  TYR456      0.0417
     84  CZ        37.7390  105.9630   78.4750 C.ar  456  TYR456      0.1957
     85  OH        37.1970  105.0940   77.5570 O.3   456  TYR456     -0.2866
     86  N         34.9350  109.7800   77.9230 N.3   458  SER458     -0.1217
     87  CA        34.4670  108.8410   76.9150 C.3   458  SER458      0.1889
     88  C         34.0030  109.5390   75.6370 C.2   458  SER458      0.2288
     89  O         33.4350  110.6320   75.6770 O.2   458  SER458     -0.2866
     90  CB        33.3280  107.9930   77.4880 C.3   458  SER458      0.2089
     91  OG        32.9610  106.9660   76.5810 O.3   458  SER458     -0.2183
     92  N         47.1300  105.5270   82.5760 N.3   553  ASN553     -0.1240
     93  CA        45.9930  104.6210   82.5230 C.3   553  ASN553      0.1653
     94  C         45.3770  104.2770   83.8700 C.2   553  ASN553      0.2266
     95  O         44.6420  103.3000   83.9980 O.2   553  ASN553     -0.2867
     96  CB        46.3780  103.3590   81.7520 C.3   553  ASN553      0.1155
     97  CG        46.6850  103.6630   80.2920 C.2   553  ASN553      0.2627
     98  OD1       47.8390  103.8680   79.9070 O.2   553  ASN553     -0.2716
     99  ND2       45.6400  103.7330   79.4780 N.am  553  ASN553     -0.0877
    100  N         43.1440  106.1920   85.7290 N.3   555  ASN555     -0.1240
    101  CA        42.2630  107.3440   85.6210 C.3   555  ASN555      0.1653
    102  C         41.5080  107.8060   86.8680 C.2   555  ASN555      0.2266
    103  O         40.3920  107.3680   87.1390 O.2   555  ASN555     -0.2867
    104  CB        41.3050  107.0850   84.4590 C.3   555  ASN555      0.1155
    105  CG        42.0460  106.8920   83.1360 C.2   555  ASN555      0.2627
    106  OD1       42.6400  107.8310   82.6020 O.2   555  ASN555     -0.2716
    107  ND2       42.0260  105.6710   82.6140 N.am  555  ASN555     -0.0877
    108  N         37.5560  110.0080   85.9440 N.3   558  SER558     -0.1202
    109  CA        36.8970  109.2880   84.8550 C.3   558  SER558      0.2020
    110  C         35.5640  109.9710   84.6240 C.2   558  SER558      0.2619
    111  O         34.7490  110.0780   85.5400 O.2   558  SER558     -0.2717
    112  CB        36.6680  107.8200   85.2150 C.3   558  SER558      0.2103
    113  OG        37.8860  107.1040   85.1820 O.3   558  SER558     -0.2182
    114  N         35.3320  110.4090   83.3940 N.am  559  THR559     -0.1938
    115  CA        34.1200  111.1460   83.0910 C.3   559  THR559      0.2028
    116  C         33.3890  110.7020   81.8420 C.2   559  THR559      0.2642
    117  O         33.9630  110.1090   80.9300 O.2   559  THR559     -0.2714
    118  CB        34.4360  112.6530   82.9110 C.3   559  THR559      0.1808
    119  OG1       35.0820  112.8570   81.6470 O.3   559  THR559     -0.2208
    120  CG2       35.3770  113.1260   84.0020 C.3   559  THR559      0.0379
    121  N         32.1020  111.0110   81.8130 N.am  560  SER560     -0.1949
    122  CA        31.2850  110.6940   80.6680 C.3   560  SER560      0.1924
    123  C         30.0830  111.6170   80.6650 C.2   560  SER560      0.2314
    124  O         29.4740  111.8680   81.7060 O.2   560  SER560     -0.2863
    125  CB        30.8180  109.2450   80.7050 C.3   560  SER560      0.2116
    126  OG        30.1690  108.9400   79.4850 O.3   560  SER560     -0.2180
    127  N         24.9700  107.4000   86.3930 N.3   571  GLY571     -0.1210
    128  CA        26.1710  107.3090   87.2060 C.3   571  GLY571      0.1956
    129  C         26.9650  106.0260   87.0590 C.2   571  GLY571      0.2611
    130  O         26.5200  105.0560   86.4490 O.2   571  GLY571     -0.2717
    131  N         28.1690  106.0380   87.6170 N.am  572  PHE572     -0.1976
    132  CA        29.0510  104.8860   87.5980 C.3   572  PHE572      0.1639
    133  C         30.0710  105.1200   88.7000 C.2   572  PHE572      0.2290
    134  O         30.3550  106.2650   89.0480 O.2   572  PHE572     -0.2864
    135  CB        29.7270  104.7180   86.2130 C.3   572  PHE572      0.0560
    136  CG        30.5420  105.9040   85.7620 C.ar  572  PHE572     -0.0200
    137  CD1       31.9190  105.9550   85.9910 C.ar  572  PHE572     -0.0042
    138  CD2       29.9350  106.9640   85.0830 C.ar  572  PHE572     -0.0042
    139  CE1       32.6880  107.0460   85.5450 C.ar  572  PHE572     -0.0003
    140  CE2       30.6890  108.0590   84.6340 C.ar  572  PHE572     -0.0003
    141  CZ        32.0680  108.1000   84.8650 C.ar  572  PHE572     -0.0000
    142  N         36.8310  104.1860   88.5340 N.3   575  VAL575     -0.1245
    143  CA        37.4840  103.0540   87.8960 C.3   575  VAL575      0.1561
    144  C         38.7910  102.6570   88.5910 C.2   575  VAL575      0.2260
    145  O         39.4150  101.6650   88.2210 O.2   575  VAL575     -0.2867
    146  CB        37.7460  103.3400   86.4020 C.3   575  VAL575      0.0252
    147  CG1       36.4300  103.6490   85.7000 C.3   575  VAL575      0.0019
    148  CG2       38.7140  104.5010   86.2510 C.3   575  VAL575      0.0019
@<TRIPOS>BOND
     1     1     2    1
     2     5     2    1
     3     5     6    1
     4     2     3    1
     5     6     7   ar
     6     6     8   ar
     7     3     4    2
     8    11     8   ar
     9    11    13   ar
    10     7     9   ar
    11     8    10   ar
    12    13    14   ar
    13     9    10   ar
    14    88    89    2
    15    88    87    1
    16    10    12   ar
    17    14    12   ar
    18    91    90    1
    19    15    16    1
    20    87    90    1
    21    87    86    1
    22    85    84    1
    23    19    16    1
    24    19    20    1
    25    16    17    1
    26    22    21    1
    27    29    31   ar
    28    29    28   ar
    29    67    66    2
    30    84    82   ar
    31    84    83   ar
    32    21    20    1
    33    31    33   ar
    34    23    17   am
    35    23    24    1
    36    82    80   ar
    37    83    81   ar
    38    17    18    2
    39    27    28    1
    40    27    24    1
    41    66    65    1
    42    99    97   am
    43   126   125    1
    44    28    30   ar
    45    24    25    1
    46    61    59   ar
    47    61    63   ar
    48    80    79   ar
    49    73    72   ar
    50    73    71   ar
    51    33    34    1
    52    33    32   ar
    53    98    97    2
    54    81    79   ar
    55    72    70   ar
    56    25    26    2
    57    59    58   ar
    58    63    62   ar
    59    71    69   ar
    60    97    96    1
    61    79    78    1
    62    65    64    1
    63    65    68    1
    64    70    69   ar
    65    76    75    1
    66    76    77    2
    67   123   122    1
    68   123   124    2
    69   122   125    1
    70   122   121    1
    71    30    32   ar
    72    58    57    1
    73    58    60   ar
    74    69    68    1
    75    62    60   ar
    76    75    78    1
    77    75    74    1
    78   117   116    2
    79    57    54    1
    80   119   118    1
    81    96    93    1
    82   121   116   am
    83   116   115    1
    84    93    92    1
    85    93    94    1
    86    54    55    1
    87    54    53    1
    88   106   105    2
    89   107   105   am
    90    55    56    2
    91    51    52    1
    92    51    50    1
    93   118   115    1
    94   118   120    1
    95   115   114    1
    96   105   104    1
    97   114   110   am
    98    52    46    1
    99    94    95    2
   100    50    47    1
   101    38    37    2
   102    42    44   ar
   103    42    40   ar
   104   104   101    1
   105    39    40    1
   106    39    36    1
   107    44    45   ar
   108   110   109    1
   109   110   111    2
   110   140   141   ar
   111   140   138   ar
   112    40    41   ar
   113   109   112    1
   114   109   108    1
   115   141   139   ar
   116    46    47    1
   117    49    48    2
   118    37    36    1
   119   138   136   ar
   120   113   112    1
   121    48    47    1
   122    45    43   ar
   123    36    35    1
   124    41    43   ar
   125   139   137   ar
   126   101   100    1
   127   101   102    1
   128   147   146    1
   129   136   137   ar
   130   136   135    1
   131   135   132    1
   132   148   146    1
   133   127   128    1
   134   146   143    1
   135   130   129    2
   136   102   103    2
   137   129   128    1
   138   129   131   am
   139   132   131    1
   140   132   133    1
   141   143   142    1
   142   143   144    1
   143   145   144    2
   144   133   134    2
