@<TRIPOS>MOLECULE
tmp/2h52A00.pdb
 155 148 0 0 0
SMALL
GASTEIGER

@<TRIPOS>ATOM
      1  N         44.3730   38.9610   76.0340 N.3     9  ARG9       -0.1231
      2  CA        43.8280   37.6320   75.8410 C.3     9  ARG9        0.1694
      3  C         44.6450   36.7570   76.7800 C.2     9  ARG9        0.2592
      4  O         45.8420   36.9840   76.9810 O.2     9  ARG9       -0.2718
      5  CB        43.9630   37.1740   74.3790 C.3     9  ARG9        0.0321
      6  CG        45.3720   37.1100   73.8450 C.3     9  ARG9        0.0489
      7  CD        45.3760   36.7000   72.3750 C.3     9  ARG9        0.2205
      8  NE        44.6970   35.4240   72.1610 N.pl3   9  ARG9       -0.0865
      9  CZ        44.8050   34.6990   71.0500 C.cat   9  ARG9        0.5346
     10  NH1       45.5690   35.1220   70.0530 N.pl3   9  ARG9        0.1354
     11  NH2       44.1480   33.5520   70.9330 N.pl3   9  ARG9        0.1354
     12  N         43.9750   35.7890   77.3850 N.am   10  HIS10      -0.1976
     13  CA        44.5840   34.8670   78.3320 C.3    10  HIS10       0.1656
     14  C         45.7000   34.0520   77.6930 C.2    10  HIS10       0.2291
     15  O         45.8660   34.0570   76.4680 O.2    10  HIS10      -0.2864
     16  CB        43.5060   33.9240   78.8470 C.3    10  HIS10       0.0771
     17  CG        42.7870   33.2070   77.7500 C.ar   10  HIS10       0.0820
     18  ND1       43.3260   32.1190   77.0960 N.ar   10  HIS10      -0.2267
     19  CD2       41.6200   33.4840   77.1220 C.ar   10  HIS10       0.1154
     20  CE1       42.5230   31.7590   76.1100 C.ar   10  HIS10       0.1986
     21  NE2       41.4810   32.5720   76.1030 N.ar   10  HIS10      -0.2212
     22  N         45.1660   25.0290   72.1310 N.3    16  ASN16      -0.1240
     23  CA        45.9380   25.9150   71.2740 C.3    16  ASN16       0.1653
     24  C         47.4070   25.5140   71.2220 C.2    16  ASN16       0.2266
     25  O         48.1010   25.7980   70.2430 O.2    16  ASN16      -0.2867
     26  CB        45.7890   27.3670   71.7270 C.3    16  ASN16       0.1155
     27  CG        44.6040   28.0570   71.0700 C.2    16  ASN16       0.2627
     28  OD1       43.4510   27.6620   71.2560 O.2    16  ASN16      -0.2716
     29  ND2       44.8870   29.0910   70.2870 N.am   16  ASN16      -0.0877
     30  N         41.4500   24.6610   67.2580 N.3    21  PHE21      -0.1227
     31  CA        40.5010   25.7420   67.5180 C.3    21  PHE21       0.1736
     32  C         39.7590   25.3900   68.8100 C.2    21  PHE21       0.2596
     33  O         39.1960   24.2980   68.9250 O.2    21  PHE21      -0.2718
     34  CB        39.4780   25.8600   66.3800 C.3    21  PHE21       0.0547
     35  CG        40.0590   26.3310   65.0720 C.ar   21  PHE21      -0.0202
     36  CD1       40.5570   27.6220   64.9430 C.ar   21  PHE21      -0.0042
     37  CD2       40.0920   25.4820   63.9650 C.ar   21  PHE21      -0.0042
     38  CE1       41.0810   28.0730   63.7290 C.ar   21  PHE21      -0.0003
     39  CE2       40.6140   25.9170   62.7430 C.ar   21  PHE21      -0.0003
     40  CZ        41.1090   27.2160   62.6240 C.ar   21  PHE21      -0.0000
     41  N         39.7540   26.3080   69.7730 N.am   22  CYS22      -0.1956
     42  CA        39.0780   26.0730   71.0520 C.3    22  CYS22       0.1843
     43  C         37.7430   26.8160   71.0980 C.2    22  CYS22       0.2626
     44  O         36.7040   26.2340   71.4040 O.2    22  CYS22      -0.2714
     45  CB        39.9640   26.5290   72.2100 C.3    22  CYS22       0.0997
     46  SG        39.2740   26.1180   73.8200 S.3    22  CYS22      -0.0797
     47  N         37.7820   28.1120   70.8150 N.am   23  SER23      -0.1950
     48  CA        36.5690   28.9190   70.7660 C.3    23  SER23       0.1924
     49  C         35.6760   28.8110   72.0200 C.2    23  SER23       0.2314
     50  O         36.1340   29.0570   73.1370 O.2    23  SER23      -0.2863
     51  CB        35.7880   28.5270   69.5020 C.3    23  SER23       0.2116
     52  OG        34.6950   29.3920   69.2520 O.3    23  SER23      -0.2180
     53  N         38.3900   30.5270   81.3600 N.3    61  ARG61      -0.1245
     54  CA        39.7890   30.9030   81.2090 C.3    61  ARG61       0.1563
     55  C         40.0130   32.4130   81.2740 C.2    61  ARG61       0.2260
     56  O         41.0680   32.8600   81.7290 O.2    61  ARG61      -0.2867
     57  CB        40.3820   30.3220   79.9150 C.3    61  ARG61       0.0307
     58  CG        39.6720   30.6860   78.6110 C.3    61  ARG61       0.0489
     59  CD        40.2210   29.7910   77.5110 C.3    61  ARG61       0.2205
     60  NE        39.7580   30.1150   76.1640 N.pl3  61  ARG61      -0.0865
     61  CZ        38.6480   29.6400   75.6040 C.cat  61  ARG61       0.5346
     62  NH1       37.8510   28.8110   76.2750 N.pl3  61  ARG61       0.1354
     63  NH2       38.3580   29.9590   74.3450 N.pl3  61  ARG61       0.1354
     64  N         34.9580   34.4120   73.0690 N.3    88  GLU88      -0.1245
     65  CA        35.8030   34.2940   71.8920 C.3    88  GLU88       0.1567
     66  C         34.8880   34.0310   70.6940 C.2    88  GLU88       0.2260
     67  O         33.7670   33.5500   70.8640 O.2    88  GLU88      -0.2867
     68  CB        36.7770   33.1270   72.0730 C.3    88  GLU88       0.0388
     69  CG        37.6130   32.8110   70.8440 C.3    88  GLU88       0.1160
     70  CD        38.4370   33.9980   70.3730 C.2    88  GLU88       0.3649
     71  OE1       37.8450   35.0330   70.0070 O.co2  88  GLU88      -0.2457
     72  OE2       39.6820   33.8930   70.3660 O.co2  88  GLU88      -0.2457
     73  N         33.7870   29.4260   66.4630 N.3    91  TYR91      -0.1241
     74  CA        34.3210   28.7920   65.2560 C.3    91  TYR91       0.1605
     75  C         33.4550   27.6850   64.6430 C.2    91  TYR91       0.2264
     76  O         33.9010   26.9780   63.7410 O.2    91  TYR91      -0.2867
     77  CB        35.7310   28.2510   65.5310 C.3    91  TYR91       0.0534
     78  CG        36.8410   29.1590   65.0370 C.ar   91  TYR91      -0.0201
     79  CD1       37.8080   29.6570   65.9130 C.ar   91  TYR91      -0.0009
     80  CD2       36.9230   29.5190   63.6900 C.ar   91  TYR91      -0.0009
     81  CE1       38.8370   30.4980   65.4550 C.ar   91  TYR91       0.0417
     82  CE2       37.9400   30.3520   63.2270 C.ar   91  TYR91       0.0417
     83  CZ        38.8910   30.8380   64.1130 C.ar   91  TYR91       0.1957
     84  OH        39.8840   31.6750   63.6550 O.3    91  TYR91      -0.2866
     85  N         44.3930   23.3970   63.1530 N.3    99  ARG99      -0.1245
     86  CA        44.6190   24.4550   62.1660 C.3    99  ARG99       0.1563
     87  C         45.5550   24.0690   61.0220 C.2    99  ARG99       0.2260
     88  O         45.2970   24.4120   59.8690 O.2    99  ARG99      -0.2867
     89  CB        45.1650   25.7150   62.8430 C.3    99  ARG99       0.0307
     90  CG        44.2980   26.2880   63.9550 C.3    99  ARG99       0.0489
     91  CD        44.8340   27.6510   64.3880 C.3    99  ARG99       0.2205
     92  NE        44.0860   28.2260   65.5020 N.pl3  99  ARG99      -0.0865
     93  CZ        44.2080   27.8350   66.7670 C.cat  99  ARG99       0.5346
     94  NH1       45.0540   26.8620   67.0830 N.pl3  99  ARG99       0.1354
     95  NH2       43.4840   28.4150   67.7170 N.pl3  99  ARG99       0.1354
     96  N         40.2540   32.3130   59.7020 N.3   115  ARG115     -0.1231
     97  CA        40.8220   32.8630   60.9310 C.3   115  ARG115      0.1694
     98  C         40.8120   34.3770   61.1030 C.2   115  ARG115      0.2591
     99  O         40.4470   34.8800   62.1670 O.2   115  ARG115     -0.2718
    100  CB        42.2740   32.4100   61.1020 C.3   115  ARG115      0.0321
    101  CG        42.4980   30.9120   61.2590 C.3   115  ARG115      0.0489
    102  CD        43.9930   30.6390   61.4020 C.3   115  ARG115      0.2205
    103  NE        44.4960   30.8910   62.7550 N.pl3 115  ARG115     -0.0865
    104  CZ        45.7800   31.0920   63.0600 C.cat 115  ARG115      0.5346
    105  NH1       46.7070   31.0880   62.1070 N.pl3 115  ARG115      0.1354
    106  NH2       46.1480   31.2600   64.3270 N.pl3 115  ARG115      0.1354
    107  N         41.2080   35.1020   60.0630 N.am  116  ARG116     -0.1980
    108  CA        41.3370   36.5500   60.1750 C.3   116  ARG116      0.1597
    109  C         40.4450   37.4720   59.3480 C.2   116  ARG116      0.2287
    110  O         40.4650   38.6850   59.5620 O.2   116  ARG116     -0.2864
    111  CB        42.8030   36.9140   59.9230 C.3   116  ARG116      0.0334
    112  CG        43.7830   36.1870   60.8510 C.3   116  ARG116      0.0492
    113  CD        43.8870   36.8670   62.2110 C.3   116  ARG116      0.2205
    114  NE        44.7060   36.0910   63.1410 N.pl3 116  ARG116     -0.0865
    115  CZ        44.2380   35.1350   63.9370 C.cat 116  ARG116      0.5346
    116  NH1       42.9450   34.8350   63.9320 N.pl3 116  ARG116      0.1354
    117  NH2       45.0690   34.4660   64.7270 N.pl3 116  ARG116      0.1354
    118  N         39.4720   37.4880   74.6430 N.3   187  HIS187     -0.1226
    119  CA        40.1030   36.4730   73.8120 C.3   187  HIS187      0.1752
    120  C         40.7060   37.0490   72.5410 C.2   187  HIS187      0.2597
    121  O         40.5660   38.2390   72.2580 O.2   187  HIS187     -0.2718
    122  CB        39.0650   35.4000   73.4790 C.3   187  HIS187      0.0759
    123  CG        38.3670   34.8570   74.6880 C.ar  187  HIS187      0.0818
    124  ND1       38.8950   33.8440   75.4570 N.ar  187  HIS187     -0.2268
    125  CD2       37.2260   35.2440   75.3080 C.ar  187  HIS187      0.1154
    126  CE1       38.1130   33.6310   76.5010 C.ar  187  HIS187      0.1986
    127  NE2       37.0940   34.4680   76.4350 N.ar  187  HIS187     -0.2212
    128  N         41.3660   36.1900   71.7740 N.am  188  GLY188     -0.1942
    129  CA        42.0100   36.6320   70.5510 C.3   188  GLY188      0.2014
    130  C         41.1480   37.3990   69.5670 C.2   188  GLY188      0.2638
    131  O         41.4750   38.5260   69.2010 O.2   188  GLY188     -0.2714
    132  N         40.0420   36.8000   69.1350 N.am  189  ASN189     -0.1972
    133  CA        39.1840   37.4510   68.1620 C.3   189  ASN189      0.1688
    134  C         38.1650   38.4440   68.7120 C.2   189  ASN189      0.2292
    135  O         37.8220   39.4010   68.0250 O.2   189  ASN189     -0.2864
    136  CB        38.5030   36.3970   67.2840 C.3   189  ASN189      0.1181
    137  CG        39.5040   35.5970   66.4620 C.2   189  ASN189      0.2629
    138  OD1       40.3930   36.1640   65.8300 O.2   189  ASN189     -0.2716
    139  ND2       39.3600   34.2750   66.4640 N.am  189  ASN189     -0.0877
    140  N         51.6010   32.4780   66.2810 N.3   247  VAL247     -0.1245
    141  CA        50.1640   32.3920   66.0450 C.3   247  VAL247      0.1561
    142  C         49.8550   32.3840   64.5480 C.2   247  VAL247      0.2260
    143  O         48.9700   31.6570   64.0950 O.2   247  VAL247     -0.2867
    144  CB        49.4120   33.5660   66.7120 C.3   247  VAL247      0.0252
    145  CG1       47.9270   33.5190   66.3440 C.3   247  VAL247      0.0019
    146  CG2       49.5800   33.4840   68.2290 C.3   247  VAL247      0.0019
    147  N         50.6580   28.9190   62.8780 N.3   250  GLN250     -0.1245
    148  CA        49.8100   27.7690   63.1760 C.3   250  GLN250      0.1566
    149  C         48.9010   27.4740   61.9920 C.2   250  GLN250      0.2260
    150  O         48.3750   26.3700   61.8620 O.2   250  GLN250     -0.2867
    151  CB        48.9430   28.0350   64.4060 C.3   250  GLN250      0.0367
    152  CG        49.7240   28.1680   65.6960 C.3   250  GLN250      0.0905
    153  CD        48.8220   28.4210   66.8800 C.2   250  GLN250      0.2608
    154  OE1       48.0430   29.3730   66.8830 O.2   250  GLN250     -0.2717
    155  NE2       48.9180   27.5690   67.8940 N.am  250  GLN250     -0.0878
@<TRIPOS>BOND
     1   109   110    2
     2   109   108    1
     3    96    97    1
     4    88    87    2
     5   111   108    1
     6   111   112    1
     7   107   108    1
     8   107    98   am
     9   112   113    1
    10    97   100    1
    11    97    98    1
    12    87    86    1
    13   100   101    1
    14    98    99    2
    15   101   102    1
    16   102   103    1
    17   150   149    2
    18   149   148    1
    19   105   104    1
    20    86    89    1
    21    86    85    1
    22   113   114    1
    23    40    39   ar
    24    40    38   ar
    25    39    37   ar
    26   103   104    2
    27    89    90    1
    28   147   148    1
    29   104   106    1
    30   114   115    2
    31   148   151    1
    32    82    80   ar
    33    82    83   ar
    34    84    83    1
    35    80    78   ar
    36    38    36   ar
    37    76    75    2
    38   116   115    1
    39   115   117    1
    40    90    91    1
    41    37    35   ar
    42   143   142    2
    43    83    81   ar
    44    91    92    1
    45   151   152    1
    46   142   141    1
    47    75    74    1
    48    36    35   ar
    49    78    77    1
    50    78    79   ar
    51    35    34    1
    52    74    77    1
    53    74    73    1
    54    81    79   ar
    55    92    93    2
    56   152   153    1
    57   138   137    2
    58   141   140    1
    59   141   144    1
    60   145   144    1
    61    34    31    1
    62   137   139   am
    63   137   136    1
    64   144   146    1
    65    93    94    1
    66    93    95    1
    67   153   154    2
    68   153   155   am
    69    30    31    1
    70   136   133    1
    71    31    32    1
    72   135   134    2
    73   133   134    1
    74   133   132    1
    75    32    33    2
    76    32    41   am
    77   132   130   am
    78   131   130    2
    79    52    51    1
    80    51    48    1
    81   130   129    1
    82    41    42    1
    83    71    70   ar
    84    10     9    1
    85    25    24    2
    86    29    27   am
    87    72    70   ar
    88    70    69    1
    89   129   128    1
    90    66    67    2
    91    66    65    1
    92    48    47    1
    93    48    49    1
    94    47    43   am
    95    69    68    1
    96    11     9    1
    97     9     8    2
    98    42    43    1
    99    42    45    1
   100    27    28    2
   101    27    26    1
   102    43    44    2
   103    24    23    1
   104    23    26    1
   105    23    22    1
   106   128   120   am
   107    65    68    1
   108    65    64    1
   109    49    50    2
   110     8     7    1
   111    45    46    1
   112   121   120    2
   113     7     6    1
   114   120   119    1
   115   122   119    1
   116   122   123    1
   117   119   118    1
   118     6     5    1
   119    63    61    1
   120     5     2    1
   121   123   125   ar
   122   123   124   ar
   123   125   127   ar
   124   124   126   ar
   125    61    60    2
   126    61    62    1
   127     2     1    1
   128     2     3    1
   129    21    20   ar
   130    21    19   ar
   131    20    18   ar
   132    60    59    1
   133   127   126   ar
   134    15    14    2
   135     3     4    2
   136     3    12   am
   137    18    17   ar
   138    19    17   ar
   139    12    13    1
   140    59    58    1
   141    14    13    1
   142    17    16    1
   143    13    16    1
   144    58    57    1
   145    57    54    1
   146    54    55    1
   147    54    53    1
   148    55    56    2
