@<TRIPOS>MOLECULE
tmp/2h52A01.pdb
 73 67 0 0 0
SMALL
GASTEIGER

@<TRIPOS>ATOM
      1  N         51.2920   33.0620   82.9420 N.3    36  GLU36      -0.1245
      2  CA        51.1910   34.2050   82.0460 C.3    36  GLU36       0.1567
      3  C         50.2990   35.2820   82.6470 C.2    36  GLU36       0.2260
      4  O         50.6000   36.4710   82.5440 O.2    36  GLU36      -0.2867
      5  CB        50.6360   33.7820   80.6850 C.3    36  GLU36       0.0388
      6  CG        51.6680   33.1590   79.7590 C.3    36  GLU36       0.1160
      7  CD        51.0980   32.8550   78.3850 C.2    36  GLU36       0.3649
      8  OE1       50.4790   31.7850   78.2080 O.co2  36  GLU36      -0.2457
      9  OE2       51.2560   33.6990   77.4820 O.co2  36  GLU36      -0.2457
     10  N         52.1170   37.0300   85.3490 N.3    39  ASN39      -0.1240
     11  CA        53.1060   37.9490   84.7980 C.3    39  ASN39       0.1653
     12  C         52.4620   39.2600   84.3620 C.2    39  ASN39       0.2266
     13  O         53.0350   40.3330   84.5560 O.2    39  ASN39      -0.2867
     14  CB        53.8610   37.3000   83.6310 C.3    39  ASN39       0.1155
     15  CG        54.7620   36.1660   84.0930 C.2    39  ASN39       0.2627
     16  OD1       55.2230   36.1560   85.2360 O.2    39  ASN39      -0.2716
     17  ND2       55.0260   35.2130   83.2070 N.am   39  ASN39      -0.0877
     18  N         49.2100   35.9990   72.9100 N.3   213  THR213     -0.1203
     19  CA        48.5580   35.5860   74.1480 C.3   213  THR213      0.1994
     20  C         49.3020   36.0660   75.3930 C.2   213  THR213      0.2618
     21  O         50.5240   36.2130   75.3800 O.2   213  THR213     -0.2717
     22  CB        48.4520   34.0520   74.2320 C.3   213  THR213      0.1784
     23  OG1       49.7640   33.4900   74.3160 O.3   213  THR213     -0.2211
     24  CG2       47.7540   33.4930   73.0060 C.3   213  THR213      0.0376
     25  N         48.5540   36.3070   76.4660 N.am  214  GLY214     -0.1942
     26  CA        49.1490   36.7310   77.7240 C.3   214  GLY214      0.2014
     27  C         49.9700   38.0080   77.7140 C.2   214  GLY214      0.2638
     28  O         50.9440   38.1280   78.4560 O.2   214  GLY214     -0.2714
     29  N         49.5740   38.9720   76.8910 N.am  215  VAL215     -0.1977
     30  CA        50.2920   40.2380   76.8010 C.3   215  VAL215      0.1596
     31  C         49.3480   41.4260   76.9910 C.2   215  VAL215      0.2287
     32  O         48.3590   41.5590   76.2730 O.2   215  VAL215     -0.2864
     33  CB        50.9840   40.3780   75.4270 C.3   215  VAL215      0.0276
     34  CG1       51.5720   41.7840   75.2710 C.3   215  VAL215      0.0022
     35  CG2       52.0670   39.3310   75.2880 C.3   215  VAL215      0.0022
     36  N         52.5550   45.6310   75.8230 N.3   234  LEU234     -0.1231
     37  CA        53.4370   45.8340   76.9630 C.3   234  LEU234      0.1693
     38  C         54.3800   44.6490   77.1680 C.2   234  LEU234      0.2593
     39  O         53.9330   43.5200   77.3870 O.2   234  LEU234     -0.2718
     40  CB        52.5940   46.0500   78.2220 C.3   234  LEU234      0.0284
     41  CG        53.2990   46.4740   79.5060 C.3   234  LEU234      0.0019
     42  CD1       53.9150   47.8550   79.3110 C.3   234  LEU234      0.0001
     43  CD2       52.2930   46.4950   80.6500 C.3   234  LEU234      0.0001
     44  N         55.6820   44.9140   77.1020 N.am  235  GLY235     -0.1942
     45  CA        56.6640   43.8600   77.2940 C.3   235  GLY235      0.2014
     46  C         57.8110   43.8800   76.2960 C.2   235  GLY235      0.2638
     47  O         58.0360   44.8780   75.6110 O.2   235  GLY235     -0.2714
     48  N         58.5370   42.7680   76.2260 N.am  236  ASP236     -0.1971
     49  CA        59.6720   42.6090   75.3150 C.3   236  ASP236      0.1709
     50  C         59.1360   42.5320   73.8880 C.2   236  ASP236      0.2293
     51  O         58.5290   41.5380   73.5070 O.2   236  ASP236     -0.2864
     52  CB        60.4250   41.3180   75.6670 C.3   236  ASP236      0.1436
     53  CG        61.6770   41.1170   74.8340 C.2   236  ASP236      0.3671
     54  OD1       61.5670   40.9590   73.6010 O.co2 236  ASP236     -0.2456
     55  OD2       62.7790   41.1130   75.4230 O.co2 236  ASP236     -0.2456
     56  N         60.0020   39.3310   71.8250 N.3   239  ALA239     -0.1231
     57  CA        59.2690   38.1450   72.2420 C.3   239  ALA239      0.1694
     58  C         57.8180   38.2690   71.7820 C.2   239  ALA239      0.2591
     59  O         57.1850   37.2790   71.4210 O.2   239  ALA239     -0.2718
     60  CB        59.3360   37.9880   73.7580 C.3   239  ALA239      0.0304
     61  N         57.3030   39.4960   71.7910 N.am  240  ILE240     -0.1980
     62  CA        55.9300   39.7540   71.3690 C.3   240  ILE240      0.1595
     63  C         55.7320   39.5380   69.8650 C.2   240  ILE240      0.2287
     64  O         54.7280   38.9620   69.4490 O.2   240  ILE240     -0.2864
     65  CB        55.4960   41.1880   71.7570 C.3   240  ILE240      0.0276
     66  CG1       55.3410   41.2780   73.2800 C.3   240  ILE240      0.0022
     67  CG2       54.1860   41.5530   71.0680 C.3   240  ILE240      0.0022
     68  CD1       55.0690   42.6810   73.7900 C.3   240  ILE240      0.0001
     69  N         55.9360   35.9070   69.2110 N.3   243  ALA243     -0.1245
     70  CA        54.7050   35.2570   69.6480 C.3   243  ALA243      0.1562
     71  C         53.5940   35.4550   68.6160 C.2   243  ALA243      0.2260
     72  O         52.7580   34.5710   68.4050 O.2   243  ALA243     -0.2867
     73  CB        54.2770   35.8170   70.9930 C.3   243  ALA243      0.0290
@<TRIPOS>BOND
     1    72    71    2
     2    71    70    1
     3    69    70    1
     4    64    63    2
     5    70    73    1
     6    63    62    1
     7    67    65    1
     8    62    65    1
     9    62    61    1
    10    59    58    2
    11    65    66    1
    12    58    61   am
    13    58    57    1
    14    56    57    1
    15    57    60    1
    16    18    19    1
    17    24    22    1
    18    66    68    1
    19    51    50    2
    20    54    53   ar
    21    50    49    1
    22    19    22    1
    23    19    20    1
    24    22    23    1
    25    53    55   ar
    26    53    52    1
    27    34    33    1
    28    35    33    1
    29    49    52    1
    30    49    48    1
    31    21    20    2
    32    20    25   am
    33    33    30    1
    34    47    46    2
    35    36    37    1
    36    48    46   am
    37    32    31    2
    38    46    45    1
    39    25    26    1
    40    30    29    1
    41    30    31    1
    42    29    27   am
    43    37    38    1
    44    37    40    1
    45    44    38   am
    46    44    45    1
    47    38    39    2
    48     9     7   ar
    49    27    26    1
    50    27    28    2
    51     8     7   ar
    52    40    41    1
    53     7     6    1
    54    42    41    1
    55    41    43    1
    56     6     5    1
    57     5     2    1
    58     2     3    1
    59     2     1    1
    60     4     3    2
    61    17    15   am
    62    14    15    1
    63    14    11    1
    64    15    16    2
    65    12    13    2
    66    12    11    1
    67    11    10    1
