@<TRIPOS>MOLECULE
tmp/2h55A00.pdb
 163 152 0 0 0
SMALL
GASTEIGER

@<TRIPOS>ATOM
      1  N         -0.9120   11.5190   16.2150 N.3    33  LEU33      -0.1245
      2  CA        -1.4630   12.0640   17.4530 C.3    33  LEU33       0.1561
      3  C         -2.7440   11.3420   17.8460 C.2    33  LEU33       0.2260
      4  O         -2.9800   11.0760   19.0230 O.2    33  LEU33      -0.2867
      5  CB        -1.7300   13.5680   17.3040 C.3    33  LEU33       0.0270
      6  CG        -0.4900   14.4140   16.9890 C.3    33  LEU33       0.0019
      7  CD1       -0.8890   15.8790   16.9160 C.3    33  LEU33       0.0001
      8  CD2        0.5790   14.2010   18.0580 C.3    33  LEU33       0.0001
      9  N         -1.8240    8.0770   19.2860 N.3    36  ASN36      -0.1225
     10  CA        -1.2950    8.2070   20.6380 C.3    36  ASN36       0.1785
     11  C         -2.4730    8.3380   21.6000 C.2    36  ASN36       0.2597
     12  O         -2.4580    7.7710   22.6890 O.2    36  ASN36      -0.2718
     13  CB        -0.3730    9.4290   20.7620 C.3    36  ASN36       0.1169
     14  CG         0.9860    9.1980   20.1290 C.2    36  ASN36       0.2627
     15  OD1        1.4090    8.0560   19.9460 O.2    36  ASN36      -0.2716
     16  ND2        1.6870   10.2800   19.8140 N.am   36  ASN36      -0.0877
     17  N         -3.4950    9.0840   21.1910 N.am   37  SER37      -0.1952
     18  CA        -4.6850    9.2530   22.0190 C.3    37  SER37       0.1924
     19  C         -5.3730    7.8970   22.2000 C.2    37  SER37       0.2314
     20  O         -5.7570    7.5240   23.3050 O.2    37  SER37      -0.2863
     21  CB        -5.6520   10.2420   21.3620 C.3    37  SER37       0.2116
     22  OG        -5.1140   11.5550   21.3840 O.3    37  SER37      -0.2180
     23  N         -4.0790    4.9490   22.0820 N.3    39  ASP39      -0.1225
     24  CA        -3.2850    4.1010   22.9680 C.3    39  ASP39       0.1805
     25  C         -3.5290    4.4740   24.4290 C.2    39  ASP39       0.2597
     26  O         -3.6410    3.6010   25.2970 O.2    39  ASP39      -0.2718
     27  CB        -1.7860    4.2310   22.6620 C.3    39  ASP39       0.1424
     28  CG        -1.4000    3.6260   21.3180 C.2    39  ASP39       0.3668
     29  OD1       -2.2200    2.9010   20.7130 O.co2  39  ASP39      -0.2456
     30  OD2       -0.2600    3.8690   20.8710 O.co2  39  ASP39      -0.2456
     31  N         -3.6030    5.7740   24.6920 N.am   40  ALA40      -0.1979
     32  CA        -3.8270    6.2850   26.0400 C.3    40  ALA40       0.1597
     33  C         -5.2230    5.9180   26.5240 C.2    40  ALA40       0.2287
     34  O         -5.4400    5.6750   27.7140 O.2    40  ALA40      -0.2864
     35  CB        -3.6480    7.7970   26.0530 C.3    40  ALA40       0.0319
     36  N         -5.2900    2.2680   27.4540 N.3    43  LYS43      -0.1245
     37  CA        -4.6860    2.0430   28.7600 C.3    43  LYS43       0.1561
     38  C         -5.5880    2.3520   29.9480 C.2    43  LYS43       0.2260
     39  O         -5.6580    1.5630   30.8950 O.2    43  LYS43      -0.2867
     40  CB        -3.3740    2.8240   28.8860 C.3    43  LYS43       0.0271
     41  CG        -2.5470    2.4130   30.0970 C.3    43  LYS43       0.0035
     42  CD        -1.1070    2.9020   30.0180 C.3    43  LYS43       0.0206
     43  CE        -0.2800    2.3260   31.1700 C.3    43  LYS43       0.1093
     44  NZ         1.1560    2.7320   31.1160 N.3    43  LYS43      -0.1314
     45  N         -8.0130   14.1830   24.2210 N.3    78  ASP78      -0.1239
     46  CA        -8.4480   12.8300   24.5480 C.3    78  ASP78       0.1674
     47  C         -8.6440   12.7210   26.0500 C.2    78  ASP78       0.2266
     48  O         -8.1150   13.5290   26.8120 O.2    78  ASP78      -0.2867
     49  CB        -7.4430   11.7660   24.0670 C.3    78  ASP78       0.1410
     50  CG        -6.1450   11.7640   24.8590 C.2    78  ASP78       0.3668
     51  OD1       -6.1820   11.5080   26.0810 O.co2  78  ASP78      -0.2456
     52  OD2       -5.0800   12.0060   24.2490 O.co2  78  ASP78      -0.2456
     53  N         -5.3650    8.0220   29.6120 N.3    81  ILE81      -0.1231
     54  CA        -4.7210    7.9230   30.9130 C.3    81  ILE81       0.1692
     55  C         -3.9480    9.1540   31.3860 C.2    81  ILE81       0.2593
     56  O         -3.7860    9.3570   32.5850 O.2    81  ILE81      -0.2718
     57  CB        -3.8050    6.6820   30.9660 C.3    81  ILE81       0.0266
     58  CG1       -3.3640    6.4280   32.4070 C.3    81  ILE81       0.0019
     59  CG2       -2.6190    6.8700   30.0460 C.3    81  ILE81       0.0020
     60  CD1       -2.7920    5.0510   32.6300 C.3    81  ILE81       0.0001
     61  N         -3.4760    9.9770   30.4590 N.am   82  GLY82      -0.1942
     62  CA        -2.7430   11.1680   30.8580 C.3    82  GLY82       0.2014
     63  C         -1.2910   10.8860   31.2010 C.2    82  GLY82       0.2638
     64  O         -0.8890    9.7290   31.3510 O.2    82  GLY82      -0.2714
     65  N         -0.5050   11.9500   31.3350 N.am   83  MET83      -0.1976
     66  CA         0.9150   11.8290   31.6450 C.3    83  MET83       0.1605
     67  C          1.2870   12.5050   32.9580 C.2    83  MET83       0.2287
     68  O          0.7620   13.5670   33.2950 O.2    83  MET83      -0.2864
     69  CB         1.7540   12.4360   30.5090 C.3    83  MET83       0.0413
     70  CG         1.7050   11.6470   29.2110 C.3    83  MET83       0.0598
     71  SD         2.4500   12.4990   27.7990 S.3    83  MET83      -0.1393
     72  CE         1.1000   13.5880   27.3420 C.3    83  MET83       0.0692
     73  N          6.6620   13.4110   31.3960 N.3    88  LEU88      -0.1245
     74  CA         7.0250   14.6200   30.6550 C.3    88  LEU88       0.1561
     75  C          8.4800   15.0500   30.7300 C.2    88  LEU88       0.2260
     76  O          9.0590   15.4850   29.7360 O.2    88  LEU88      -0.2867
     77  CB         6.1610   15.7980   31.1210 C.3    88  LEU88       0.0270
     78  CG         4.6490   15.7140   30.9140 C.3    88  LEU88       0.0019
     79  CD1        3.9920   16.9350   31.5380 C.3    88  LEU88       0.0001
     80  CD2        4.3330   15.6250   29.4300 C.3    88  LEU88       0.0001
     81  N          9.4610    9.6260   29.2460 N.3    92  LEU92      -0.1245
     82  CA         9.1150    9.5150   27.8320 C.3    92  LEU92       0.1561
     83  C         10.3420    9.7740   26.9680 C.2    92  LEU92       0.2260
     84  O         10.4900    9.1990   25.8900 O.2    92  LEU92      -0.2867
     85  CB         7.9980   10.4940   27.4590 C.3    92  LEU92       0.0270
     86  CG         6.6440   10.2200   28.1200 C.3    92  LEU92       0.0019
     87  CD1        5.6340   11.2600   27.6750 C.3    92  LEU92       0.0001
     88  CD2        6.1790    8.8180   27.7570 C.3    92  LEU92       0.0001
     89  N         12.5690    6.6030   26.8130 N.3    95  ILE95      -0.1231
     90  CA        12.0320    5.6390   25.8640 C.3    95  ILE95       0.1692
     91  C         12.2110    6.1210   24.4290 C.2    95  ILE95       0.2591
     92  O         12.5690    5.3450   23.5470 O.2    95  ILE95      -0.2718
     93  CB        10.5370    5.3910   26.1320 C.3    95  ILE95       0.0266
     94  CG1       10.3630    4.8010   27.5340 C.3    95  ILE95       0.0019
     95  CG2        9.9600    4.4600   25.0730 C.3    95  ILE95       0.0020
     96  CD1        8.9320    4.6710   27.9700 C.3    95  ILE95       0.0001
     97  N         11.9730    7.4090   24.2060 N.am   96  ALA96      -0.1980
     98  CA        12.1000    7.9960   22.8760 C.3    96  ALA96       0.1597
     99  C         13.5220    7.9590   22.3190 C.2    96  ALA96       0.2287
    100  O         13.7120    7.9570   21.1030 O.2    96  ALA96      -0.2864
    101  CB        11.5930    9.4370   22.8980 C.3    96  ALA96       0.0319
    102  N          7.7690    4.5210   17.8570 N.3   120  GLY120     -0.1225
    103  CA         7.3160    5.1180   19.1010 C.3   120  GLY120      0.1811
    104  C          7.5150    6.6080   19.2980 C.2   120  GLY120      0.2280
    105  O          7.2660    7.1220   20.3920 O.2   120  GLY120     -0.2866
    106  N          4.8710   11.3760   18.0090 N.3   123  PHE123     -0.1227
    107  CA         4.4770   12.6480   18.6120 C.3   123  PHE123      0.1736
    108  C          5.2360   13.8200   18.0210 C.2   123  PHE123      0.2595
    109  O          4.6630   14.8720   17.7580 O.2   123  PHE123     -0.2718
    110  CB         4.7270   12.6420   20.1210 C.3   123  PHE123      0.0547
    111  CG         4.6650   14.0150   20.7500 C.ar  123  PHE123     -0.0202
    112  CD1        3.4450   14.6610   20.9330 C.ar  123  PHE123     -0.0042
    113  CD2        5.8350   14.6730   21.1370 C.ar  123  PHE123     -0.0042
    114  CE1        3.3870   15.9380   21.4890 C.ar  123  PHE123     -0.0003
    115  CE2        5.7850   15.9510   21.6940 C.ar  123  PHE123     -0.0003
    116  CZ         4.5570   16.5840   21.8700 C.ar  123  PHE123     -0.0000
    117  N          6.5340   13.6350   17.8190 N.am  124  TYR124     -0.1976
    118  CA         7.3640   14.7040   17.2950 C.3   124  TYR124      0.1639
    119  C          7.0480   15.0930   15.8580 C.2   124  TYR124      0.2290
    120  O          7.5290   16.1150   15.3710 O.2   124  TYR124     -0.2864
    121  CB         8.8340   14.3250   17.4690 C.3   124  TYR124      0.0560
    122  CG         9.1870   14.1380   18.9260 C.ar  124  TYR124     -0.0198
    123  CD1        9.3680   15.2380   19.7690 C.ar  124  TYR124     -0.0009
    124  CD2        9.2700   12.8620   19.4800 C.ar  124  TYR124     -0.0009
    125  CE1        9.6190   15.0660   21.1330 C.ar  124  TYR124      0.0417
    126  CE2        9.5180   12.6790   20.8350 C.ar  124  TYR124      0.0417
    127  CZ         9.6910   13.7800   21.6530 C.ar  124  TYR124      0.1957
    128  OH         9.9350   13.5850   22.9870 O.3   124  TYR124     -0.2866
    129  N          1.3560   20.9800   25.3940 N.3   135  VAL135     -0.1245
    130  CA         0.6690   19.7780   25.8310 C.3   135  VAL135      0.1561
    131  C          0.1600   19.9240   27.2510 C.2   135  VAL135      0.2260
    132  O          0.9410   20.0810   28.1830 O.2   135  VAL135     -0.2867
    133  CB         1.5950   18.5360   25.7660 C.3   135  VAL135      0.0252
    134  CG1        0.8790   17.3170   26.3360 C.3   135  VAL135      0.0019
    135  CG2        2.0170   18.2690   24.3200 C.3   135  VAL135      0.0019
    136  N          3.1410   21.2390   29.2870 N.3   147  TRP147     -0.1241
    137  CA         4.4570   21.0040   28.6990 C.3   147  TRP147      0.1605
    138  C          4.4590   21.8810   27.4610 C.2   147  TRP147      0.2264
    139  O          3.4150   22.0650   26.8350 O.2   147  TRP147     -0.2867
    140  CB         4.5820   19.5270   28.2990 C.3   147  TRP147      0.0550
    141  CG         5.8200   19.1410   27.5240 C.ar  147  TRP147      0.0003
    142  CD1        6.9350   18.5210   28.0170 C.ar  147  TRP147      0.0946
    143  CD2        6.0250   19.2660   26.1100 C.ar  147  TRP147      0.0152
    144  NE1        7.8150   18.2440   26.9960 N.ar  147  TRP147     -0.2442
    145  CE2        7.2820   18.6900   25.8170 C.ar  147  TRP147      0.0810
    146  CE3        5.2670   19.8060   25.0620 C.ar  147  TRP147      0.0012
    147  CZ2        7.7980   18.6380   24.5170 C.ar  147  TRP147      0.0191
    148  CZ3        5.7820   19.7550   23.7660 C.ar  147  TRP147      0.0001
    149  CH2        7.0360   19.1740   23.5080 C.ar  147  TRP147      0.0015
    150  N         -5.3350   14.2850   27.8760 N.3   169  THR169     -0.1218
    151  CA        -4.2720   15.0770   27.2830 C.3   169  THR169      0.1862
    152  C         -4.7710   15.9530   26.1310 C.2   169  THR169      0.2287
    153  O         -5.6100   15.5120   25.3350 O.2   169  THR169     -0.2866
    154  CB        -3.1650   14.1560   26.7390 C.3   169  THR169      0.1770
    155  OG1       -2.6500   13.3530   27.8090 O.3   169  THR169     -0.2211
    156  CG2       -2.0250   14.9610   26.1230 C.3   169  THR169      0.0375
    157  N         -3.1830   18.1470   23.0120 N.3   171  VAL171     -0.1245
    158  CA        -1.9900   18.5490   22.2740 C.3   171  VAL171      0.1561
    159  C         -2.4310   19.7500   21.4470 C.2   171  VAL171      0.2260
    160  O         -3.2440   19.6330   20.5320 O.2   171  VAL171     -0.2867
    161  CB        -1.5010   17.4170   21.3580 C.3   171  VAL171      0.0252
    162  CG1       -0.2850   17.8740   20.5650 C.3   171  VAL171      0.0019
    163  CG2       -1.1560   16.1940   22.2090 C.3   171  VAL171      0.0019
@<TRIPOS>BOND
     1   120   119    2
     2   119   118    1
     3     1     2    1
     4     7     6    1
     5     6     5    1
     6     6     8    1
     7   118   121    1
     8   118   117    1
     9     5     2    1
    10     2     3    1
    11   121   122    1
    12   109   108    2
    13   117   108   am
    14     3     4    2
    15   102   103    1
    16   106   107    1
    17   108   107    1
    18   107   110    1
    19   122   124   ar
    20   122   123   ar
    21   103   104    1
    22     9    10    1
    23   104   105    2
    24   124   126   ar
    25   123   125   ar
    26    16    14   am
    27    15    14    2
    28   110   111    1
    29    14    13    1
    30   160   159    2
    31   162   161    1
    32    10    13    1
    33    10    11    1
    34    29    28   ar
    35   111   112   ar
    36   111   113   ar
    37   126   127   ar
    38    30    28   ar
    39   112   114   ar
    40   100    99    2
    41   125   127   ar
    42   113   115   ar
    43    17    11   am
    44    17    18    1
    45    28    27    1
    46   161   163    1
    47   161   158    1
    48    21    22    1
    49    21    18    1
    50   159   158    1
    51   114   116   ar
    52    11    12    2
    53   127   128    1
    54   115   116   ar
    55    18    19    1
    56    23    24    1
    57    19    20    2
    58   158   157    1
    59    99    98    1
    60    27    24    1
    61    98   101    1
    62    98    97    1
    63    24    25    1
    64   149   148   ar
    65   149   147   ar
    66    92    91    2
    67   148   146   ar
    68    49    46    1
    69    49    50    1
    70    97    91   am
    71    45    46    1
    72    52    50   ar
    73   135   133    1
    74    91    90    1
    75    25    31   am
    76    25    26    2
    77   147   145   ar
    78    46    47    1
    79    31    32    1
    80    50    51   ar
    81   146   143   ar
    82    95    93    1
    83   153   152    2
    84   129   130    1
    85   133   130    1
    86   133   134    1
    87   145   143   ar
    88   145   144   ar
    89   130   131    1
    90    90    93    1
    91    90    89    1
    92    84    83    2
    93    32    35    1
    94    32    33    1
    95    47    48    2
    96   143   141   ar
    97   156   154    1
    98   152   151    1
    99    93    94    1
   100    33    34    2
   101   154   151    1
   102   154   155    1
   103   139   138    2
   104    83    82    1
   105   144   142   ar
   106   131   132    2
   107   151   150    1
   108    72    71    1
   109    36    37    1
   110    85    82    1
   111    85    86    1
   112   138   137    1
   113   141   142   ar
   114   141   140    1
   115    94    96    1
   116    87    86    1
   117    88    86    1
   118    71    70    1
   119    82    81    1
   120   140   137    1
   121   137   136    1
   122    37    40    1
   123    37    38    1
   124    40    41    1
   125    70    69    1
   126    80    78    1
   127    53    54    1
   128    76    75    2
   129    38    39    2
   130    42    41    1
   131    42    43    1
   132    59    57    1
   133    61    62    1
   134    61    55   am
   135    69    66    1
   136    74    75    1
   137    74    77    1
   138    74    73    1
   139    62    63    1
   140    54    57    1
   141    54    55    1
   142    78    77    1
   143    78    79    1
   144    57    58    1
   145    44    43    1
   146    63    65   am
   147    63    64    2
   148    65    66    1
   149    55    56    2
   150    66    67    1
   151    58    60    1
   152    67    68    2
