@<TRIPOS>MOLECULE
tmp/2h57B00.pdb
 160 155 0 0 0
SMALL
GASTEIGER

@<TRIPOS>ATOM
      1  N         -9.4440   30.8440  -18.3090 N.3    11  ASP11      -0.1225
      2  CA        -9.2970   32.1690  -18.8600 C.3    11  ASP11       0.1805
      3  C         -9.7710   33.1710  -17.8400 C.2    11  ASP11       0.2598
      4  O        -10.6930   32.8950  -17.0640 O.2    11  ASP11      -0.2718
      5  CB       -10.1180   32.3010  -20.1750 C.3    11  ASP11       0.1424
      6  CG       -11.5680   31.8320  -20.0050 C.2    11  ASP11       0.3668
      7  OD1      -11.7970   30.5840  -19.9180 O.co2  11  ASP11      -0.2456
      8  OD2      -12.4640   32.7240  -19.8790 O.co2  11  ASP11      -0.2456
      9  N         -9.1630   34.3570  -17.8660 N.am   12  ASN12      -0.1960
     10  CA        -9.5290   35.4520  -17.0000 C.3    12  ASN12       0.1819
     11  C         -9.1490   35.2550  -15.5050 C.2    12  ASN12       0.2622
     12  O         -9.5330   36.0730  -14.6440 O.2    12  ASN12      -0.2715
     13  CB       -11.0210   35.7580  -17.1300 C.3    12  ASN12       0.1195
     14  CG       -11.3710   37.1380  -16.6240 C.2    12  ASN12       0.2630
     15  OD1      -10.6020   38.0900  -16.7900 O.2    12  ASN12      -0.2716
     16  ND2      -12.5180   37.2530  -15.9810 N.am   12  ASN12      -0.0877
     17  N         -8.3660   34.2060  -15.2090 N.am   13  SER13      -0.1936
     18  CA        -7.9880   33.8630  -13.8210 C.3    13  SER13       0.2055
     19  C         -6.8470   34.7410  -13.2490 C.2    13  SER13       0.2644
     20  O         -6.7560   34.9540  -12.0010 O.2    13  SER13      -0.2714
     21  CB        -7.6630   32.3680  -13.7140 C.3    13  SER13       0.2130
     22  OG        -6.5240   32.0210  -14.4150 O.3    13  SER13      -0.2179
     23  N         -6.0090   35.2630  -14.1500 N.am   14  GLY14      -0.1939
     24  CA        -4.9870   36.2380  -13.8170 C.3    14  GLY14       0.2014
     25  C         -3.5450   35.7990  -14.0470 C.2    14  GLY14       0.2639
     26  O         -2.6210   36.4580  -13.5860 O.2    14  GLY14      -0.2714
     27  N         -3.3830   34.7100  -14.7900 N.am   15  LYS15      -0.1963
     28  CA        -2.1010   34.1060  -15.1320 C.3    15  LYS15       0.1728
     29  C         -1.0920   35.1140  -15.6650 C.2    15  LYS15       0.2617
     30  O          0.0370   35.2180  -15.1640 O.2    15  LYS15      -0.2715
     31  CB        -2.3350   33.0050  -16.1930 C.3    15  LYS15       0.0311
     32  CG        -3.1110   31.7630  -15.6740 C.3    15  LYS15       0.0038
     33  CD        -3.3900   30.6650  -16.7260 C.3    15  LYS15       0.0206
     34  CE        -4.0830   31.1680  -18.0140 C.3    15  LYS15       0.1093
     35  NZ        -5.4200   31.7230  -17.8140 N.3    15  LYS15      -0.1314
     36  N         -1.4890   35.8490  -16.7050 N.am   16  THR16      -0.1937
     37  CA        -0.5640   36.7300  -17.3680 C.3    16  THR16       0.2028
     38  C         -0.2380   37.8990  -16.4790 C.2    16  THR16       0.2642
     39  O          0.9200   38.3600  -16.4570 O.2    16  THR16      -0.2714
     40  CB        -1.0800   37.1990  -18.7400 C.3    16  THR16       0.1808
     41  OG1       -1.3300   36.0320  -19.5530 O.3    16  THR16      -0.2208
     42  CG2       -0.0540   38.0390  -19.4020 C.3    16  THR16       0.0379
     43  N         -1.2390   38.3740  -15.7390 N.am   17  THR17      -0.1950
     44  CA        -1.0090   39.4190  -14.7250 C.3    17  THR17       0.1897
     45  C         -0.0200   38.9960  -13.6300 C.2    17  THR17       0.2313
     46  O          0.8840   39.7610  -13.2710 O.2    17  THR17      -0.2863
     47  CB        -2.2900   39.8750  -14.1200 C.3    17  THR17       0.1794
     48  OG1       -3.1570   40.3060  -15.1720 O.3    17  THR17      -0.2208
     49  CG2       -2.0550   41.0570  -13.0980 C.3    17  THR17       0.0378
     50  N         -2.0480   44.4930  -20.4680 N.3    32  ILE32      -0.1231
     51  CA        -2.1870   43.0330  -20.5550 C.3    32  ILE32       0.1692
     52  C         -3.5290   42.6860  -21.1910 C.2    32  ILE32       0.2592
     53  O         -4.5550   43.2180  -20.8120 O.2    32  ILE32      -0.2718
     54  CB        -2.0310   42.3490  -19.1530 C.3    32  ILE32       0.0266
     55  CG1       -0.5420   42.3490  -18.7370 C.3    32  ILE32       0.0019
     56  CG2       -2.5970   40.8820  -19.1630 C.3    32  ILE32       0.0020
     57  CD1       -0.3230   42.4030  -17.2710 C.3    32  ILE32       0.0001
     58  N         -3.4920   41.7850  -22.1600 N.am   33  LEU33      -0.1966
     59  CA        -4.6620   41.3690  -22.8920 C.3    33  LEU33       0.1713
     60  C         -4.7320   39.8500  -22.8320 C.2    33  LEU33       0.2458
     61  O         -3.7320   39.2100  -22.5430 O.2    33  LEU33      -0.2730
     62  CB        -4.5730   41.8320  -24.3610 C.3    33  LEU33       0.0310
     63  CG        -4.6600   43.3480  -24.6520 C.3    33  LEU33       0.0022
     64  CD1       -4.3930   43.5980  -26.1370 C.3    33  LEU33       0.0001
     65  CD2       -6.0170   43.8730  -24.2580 C.3    33  LEU33       0.0001
     66  N         -5.9200   39.2780  -23.0850 N.am   34  PRO34      -0.2716
     67  CA        -6.0860   37.8420  -23.1480 C.3    34  PRO34       0.1536
     68  C         -5.0820   37.1750  -24.0490 C.2    34  PRO34       0.2599
     69  O         -4.8540   37.6290  -25.1780 O.2    34  PRO34      -0.2715
     70  CB        -7.5020   37.6840  -23.6730 C.3    34  PRO34       0.0310
     71  CG        -8.1870   38.8340  -23.1780 C.3    34  PRO34       0.0237
     72  CD        -7.2070   39.9560  -23.2880 C.3    34  PRO34       0.0939
     73  N         -4.4750   36.1010  -23.5520 N.am   35  THR35      -0.1951
     74  CA        -3.3900   35.4580  -24.2530 C.3    35  THR35       0.1897
     75  C         -3.9510   34.6880  -25.4590 C.2    35  THR35       0.2313
     76  O         -4.9920   34.0720  -25.3750 O.2    35  THR35      -0.2863
     77  CB        -2.5820   34.5710  -23.3030 C.3    35  THR35       0.1794
     78  OG1       -2.1180   35.3800  -22.2190 O.3    35  THR35      -0.2208
     79  CG2       -1.3890   33.9630  -23.9910 C.3    35  THR35       0.0378
     80  N          0.0300   29.9820  -20.7630 N.3    55  MET55      -0.1230
     81  CA        -1.0110   29.5080  -21.6480 C.3    55  MET55       0.1702
     82  C         -2.2810   30.3930  -21.5840 C.2    55  MET55       0.2593
     83  O         -2.5730   31.0590  -20.5720 O.2    55  MET55      -0.2718
     84  CB        -1.3330   28.0270  -21.3940 C.3    55  MET55       0.0401
     85  CG        -0.1380   27.1180  -21.2020 C.3    55  MET55       0.0596
     86  SD         1.0150   26.9920  -22.6120 S.3    55  MET55      -0.1393
     87  CE        -0.1120   26.6190  -23.9600 C.3    55  MET55       0.0692
     88  N         -3.0110   30.4460  -22.7010 N.am   56  SER56      -0.1938
     89  CA        -4.3760   30.9340  -22.6560 C.3    56  SER56       0.2055
     90  C         -5.2060   29.9150  -21.9040 C.2    56  SER56       0.2644
     91  O         -5.0090   28.7220  -22.0580 O.2    56  SER56      -0.2714
     92  CB        -4.9770   31.0810  -24.0560 C.3    56  SER56       0.2130
     93  OG        -6.3440   31.5180  -23.9610 O.3    56  SER56      -0.2179
     94  N         -6.1620   30.3890  -21.1210 N.am   57  GLY57      -0.1939
     95  CA        -7.1300   29.4860  -20.4920 C.3    57  GLY57       0.2014
     96  C         -8.4310   29.3080  -21.2560 C.2    57  GLY57       0.2638
     97  O         -9.2760   28.5390  -20.8330 O.2    57  GLY57      -0.2714
     98  N         -8.5930   29.9960  -22.3840 N.am   58  GLN58      -0.1977
     99  CA        -9.8050   29.8540  -23.2180 C.3    58  GLN58       0.1601
    100  C         -9.9050   28.4290  -23.6580 C.2    58  GLN58       0.2287
    101  O         -8.8970   27.8000  -23.9570 O.2    58  GLN58      -0.2864
    102  CB        -9.7840   30.7550  -24.4680 C.3    58  GLN58       0.0394
    103  CG        -9.9920   32.2140  -24.2400 C.3    58  GLN58       0.0908
    104  CD        -9.8730   33.0110  -25.5650 C.2    58  GLN58       0.2608
    105  OE1      -10.5800   32.7260  -26.5220 O.2    58  GLN58      -0.2717
    106  NE2       -8.9780   33.9960  -25.6060 N.am   58  GLN58      -0.0878
    107  N         -6.3310   33.4660   -6.8280 N.3   115  ASN115     -0.1225
    108  CA        -6.0810   34.8420   -7.2370 C.3   115  ASN115      0.1785
    109  C         -7.3480   35.6890   -7.1480 C.2   115  ASN115      0.2597
    110  O         -8.4380   35.1600   -6.9470 O.2   115  ASN115     -0.2718
    111  CB        -5.4420   34.8080   -8.6550 C.3   115  ASN115      0.1169
    112  CG        -4.8820   36.1210   -9.0730 C.2   115  ASN115      0.2627
    113  OD1       -4.0700   36.7200   -8.3440 O.2   115  ASN115     -0.2716
    114  ND2       -5.3020   36.6050  -10.2330 N.am  115  ASN115     -0.0877
    115  N         -7.2170   37.0010   -7.3050 N.am  116  LYS116     -0.1980
    116  CA        -8.3350   37.9190   -7.2260 C.3   116  LYS116      0.1596
    117  C         -8.9690   37.9000   -5.8530 C.2   116  LYS116      0.2287
    118  O        -10.1840   38.0870   -5.7190 O.2   116  LYS116     -0.2864
    119  CB        -9.3990   37.6550   -8.3220 C.3   116  LYS116      0.0298
    120  CG        -8.8320   37.6420   -9.7450 C.3   116  LYS116      0.0038
    121  CD        -9.8860   38.0110  -10.7430 C.3   116  LYS116      0.0206
    122  CE        -9.3940   37.8260  -12.1410 C.3   116  LYS116      0.1093
    123  NZ       -10.3930   38.2350  -13.1380 N.3   116  LYS116     -0.1314
    124  N         -8.8590   40.1320   -3.7770 N.3   118  ASP118     -0.1225
    125  CA        -9.3970   41.4550   -3.4910 C.3   118  ASP118      0.1805
    126  C        -10.8800   41.6570   -3.8950 C.2   118  ASP118      0.2597
    127  O        -11.4890   42.6650   -3.5350 O.2   118  ASP118     -0.2718
    128  CB        -8.5730   42.5170   -4.1840 C.3   118  ASP118      0.1424
    129  CG        -8.5340   42.3400   -5.6960 C.2   118  ASP118      0.3668
    130  OD1       -8.1100   41.2500   -6.1220 O.co2 118  ASP118     -0.2456
    131  OD2       -8.8820   43.3060   -6.4450 O.co2 118  ASP118     -0.2456
    132  N        -11.4460   40.7390   -4.6670 N.am  119  LEU119     -0.1979
    133  CA       -12.7840   40.9650   -5.1970 C.3   119  LEU119      0.1596
    134  C        -13.8340   40.5890   -4.1680 C.2   119  LEU119      0.2287
    135  O        -13.5690   39.8000   -3.2480 O.2   119  LEU119     -0.2864
    136  CB       -12.9980   40.2220   -6.5240 C.3   119  LEU119      0.0297
    137  CG       -12.1980   40.7740   -7.6990 C.3   119  LEU119      0.0022
    138  CD1      -12.5670   40.0570   -8.9910 C.3   119  LEU119      0.0001
    139  CD2      -12.3790   42.3230   -7.8480 C.3   119  LEU119      0.0001
    140  N         -3.5280   38.7770   -4.7930 N.3   148  ASP148     -0.1225
    141  CA        -4.0740   39.9240   -5.4530 C.3   148  ASP148      0.1805
    142  C         -2.9510   40.2930   -6.4370 C.2   148  ASP148      0.2598
    143  O         -1.9530   40.8710   -6.0430 O.2   148  ASP148     -0.2718
    144  CB        -4.3420   41.0760   -4.4300 C.3   148  ASP148      0.1424
    145  CG        -4.7210   42.4180   -5.1000 C.2   148  ASP148      0.3668
    146  OD1       -4.5150   42.5830   -6.3260 O.co2 148  ASP148     -0.2456
    147  OD2       -5.2230   43.3370   -4.3880 O.co2 148  ASP148     -0.2456
    148  N         -3.1040   39.9080   -7.7070 N.am  149  ALA149     -0.1966
    149  CA        -2.0150   40.0510   -8.6990 C.3   149  ALA149      0.1728
    150  C         -1.7930   41.4990   -9.1180 C.2   149  ALA149      0.2616
    151  O         -0.7380   41.8430   -9.6650 O.2   149  ALA149     -0.2715
    152  CB        -2.3020   39.1660   -9.9540 C.3   149  ALA149      0.0334
    153  N         -2.7900   42.3410   -8.8830 N.am  150  ILE150     -0.1977
    154  CA        -2.6940   43.7500   -9.2140 C.3   150  ILE150      0.1596
    155  C         -1.8110   44.5000   -8.1960 C.2   150  ILE150      0.2287
    156  O         -0.9670   45.2820   -8.6000 O.2   150  ILE150     -0.2864
    157  CB        -4.0970   44.3930   -9.4320 C.3   150  ILE150      0.0276
    158  CG1       -4.6900   43.8350  -10.7420 C.3   150  ILE150      0.0022
    159  CG2       -3.9990   45.9240   -9.4810 C.3   150  ILE150      0.0022
    160  CD1       -5.9980   44.4010  -11.0970 C.3   150  ILE150      0.0001
@<TRIPOS>BOND
     1   105   104    2
     2    64    63    1
     3   106   104   am
     4   104   103    1
     5    75    76    2
     6    75    74    1
     7    69    68    2
     8    63    62    1
     9    63    65    1
    10   102   103    1
    11   102    99    1
    12    62    59    1
    13    74    73    1
    14    74    77    1
    15    92    93    1
    16    92    89    1
    17    68    73   am
    18    68    67    1
    19    79    77    1
    20    87    86    1
    21   101   100    2
    22    70    71    1
    23    70    67    1
    24   100    99    1
    25    77    78    1
    26    72    71    1
    27    72    66    1
    28    99    98    1
    29    67    66    1
    30    66    60   am
    31    59    60    1
    32    59    58    1
    33    60    61    2
    34    88    89    1
    35    88    82   am
    36    89    90    1
    37    86    85    1
    38    98    96   am
    39    58    52   am
    40    91    90    2
    41    90    94   am
    42    81    82    1
    43    81    84    1
    44    81    80    1
    45    82    83    2
    46    84    85    1
    47    96    97    2
    48    96    95    1
    49    52    53    2
    50    52    51    1
    51    94    95    1
    52    51    50    1
    53    51    54    1
    54     5     6    1
    55     5     2    1
    56     6     7   ar
    57     6     8   ar
    58    41    40    1
    59    42    40    1
    60    56    54    1
    61    54    55    1
    62     2     1    1
    63     2     3    1
    64    40    37    1
    65    55    57    1
    66    34    35    1
    67    34    33    1
    68     9     3   am
    69     9    10    1
    70     3     4    2
    71    37    36    1
    72    37    38    1
    73    13    10    1
    74    13    14    1
    75    10    11    1
    76    15    14    2
    77    33    32    1
    78    36    29   am
    79    14    16   am
    80    38    39    2
    81    38    43   am
    82    31    32    1
    83    31    28    1
    84    43    44    1
    85    29    30    2
    86    29    28    1
    87    11    17   am
    88    11    12    2
    89    17    18    1
    90    48    47    1
    91    28    27    1
    92    27    25   am
    93    44    47    1
    94    44    45    1
    95    22    21    1
    96    23    24    1
    97    23    19   am
    98    47    49    1
    99    25    24    1
   100    25    26    2
   101    18    21    1
   102    18    19    1
   103    45    46    2
   104    19    20    2
   105   123   122    1
   106   122   121    1
   107   160   158    1
   108   121   120    1
   109   158   157    1
   110   114   112   am
   111   152   149    1
   112   120   119    1
   113   151   150    2
   114   159   157    1
   115   157   154    1
   116   154   153    1
   117   154   155    1
   118   150   153   am
   119   150   149    1
   120   112   111    1
   121   112   113    2
   122   138   137    1
   123   149   148    1
   124   111   108    1
   125   156   155    2
   126   119   116    1
   127   139   137    1
   128   148   142   am
   129   137   136    1
   130   115   116    1
   131   115   109   am
   132   108   109    1
   133   108   107    1
   134   116   117    1
   135   109   110    2
   136   136   133    1
   137   131   129   ar
   138   142   143    2
   139   142   141    1
   140   146   145   ar
   141   130   129   ar
   142   117   118    2
   143   129   128    1
   144   141   140    1
   145   141   144    1
   146   133   132    1
   147   133   134    1
   148   145   144    1
   149   145   147   ar
   150   132   126   am
   151   128   125    1
   152   134   135    2
   153   126   127    2
   154   126   125    1
   155   124   125    1
