@<TRIPOS>MOLECULE
tmp/2h5dA00.pdb
 117 114 0 0 0
SMALL
GASTEIGER

@<TRIPOS>ATOM
      1  N         16.1290   26.6780   21.3140 N.3    36  HIS36      -0.1241
      2  CA        14.7180   26.9210   21.1070 C.3    36  HIS36       0.1621
      3  C         14.1370   25.9990   20.0270 C.2    36  HIS36       0.2264
      4  O         12.9180   25.9220   19.8830 O.2    36  HIS36      -0.2867
      5  CB        14.4250   28.3820   20.7970 C.3    36  HIS36       0.0745
      6  CG        14.8110   28.8460   19.4290 C.ar   36  HIS36       0.0817
      7  ND1       15.9570   29.5570   19.1230 N.ar   36  HIS36      -0.2268
      8  CD2       14.1290   28.7000   18.2700 C.ar   36  HIS36       0.1154
      9  CE1       15.9480   29.8320   17.8310 C.ar   36  HIS36       0.1986
     10  NE2       14.8320   29.3060   17.2800 N.ar   36  HIS36      -0.2212
     11  N         17.0900   26.9080   26.9650 N.3    59  PHE59      -0.1241
     12  CA        16.4270   28.0300   26.3360 C.3    59  PHE59       0.1605
     13  C         15.1760   28.3510   27.1880 C.2    59  PHE59       0.2264
     14  O         14.4610   27.3940   27.5050 O.2    59  PHE59      -0.2867
     15  CB        15.9220   27.6660   24.9110 C.3    59  PHE59       0.0534
     16  CG        15.1420   28.8070   24.3050 C.ar   59  PHE59      -0.0203
     17  CD1       15.7680   29.9410   23.8260 C.ar   59  PHE59      -0.0042
     18  CD2       13.7560   28.7270   24.2520 C.ar   59  PHE59      -0.0042
     19  CE1       15.0390   30.9990   23.3010 C.ar   59  PHE59      -0.0003
     20  CE2       13.0210   29.7870   23.7080 C.ar   59  PHE59      -0.0003
     21  CZ        13.6540   30.9230   23.2390 C.ar   59  PHE59      -0.0000
     22  N         13.1940   37.8380   24.0370 N.3   123  TYR123     -0.1227
     23  CA        12.2620   37.0240   23.3250 C.3   123  TYR123      0.1736
     24  C         10.9860   36.8450   24.1700 C.2   123  TYR123      0.2595
     25  O         10.9880   36.9580   25.3830 O.2   123  TYR123     -0.2718
     26  CB        12.8610   35.6370   23.0780 C.3   123  TYR123      0.0548
     27  CG        14.1160   35.6250   22.2070 C.ar  123  TYR123     -0.0200
     28  CD1       14.2510   36.4150   21.0640 C.ar  123  TYR123     -0.0009
     29  CD2       15.1230   34.7190   22.4990 C.ar  123  TYR123     -0.0009
     30  CE1       15.3440   36.2810   20.2380 C.ar  123  TYR123      0.0417
     31  CE2       16.2270   34.5910   21.6570 C.ar  123  TYR123      0.0417
     32  CZ        16.3370   35.3470   20.5270 C.ar  123  TYR123      0.1957
     33  OH        17.4030   35.2580   19.6730 O.3   123  TYR123     -0.2866
     34  N          9.9010   36.4470   23.4980 N.am  124  ALA124     -0.1966
     35  CA         8.6380   36.2020   24.2200 C.3   124  ALA124      0.1728
     36  C          8.7700   35.1870   25.3010 C.2   124  ALA124      0.2616
     37  O          8.0980   35.2890   26.3560 O.2   124  ALA124     -0.2715
     38  CB         7.5630   35.7840   23.2170 C.3   124  ALA124      0.0334
     39  N          9.6380   34.1750   25.1370 N.am  125  GLU125     -0.1977
     40  CA         9.7940   33.1420   26.1420 C.3   125  GLU125      0.1602
     41  C         10.5940   33.6420   27.3490 C.2   125  GLU125      0.2287
     42  O         10.5530   32.9580   28.4010 O.2   125  GLU125     -0.2864
     43  CB        10.5090   31.9360   25.5550 C.3   125  GLU125      0.0415
     44  CG         9.7480   31.2520   24.4250 C.3   125  GLU125      0.1163
     45  CD        10.0540   31.7730   23.0240 C.2   125  GLU125      0.3649
     46  OE1       10.5280   32.8810   22.8620 O.co2 125  GLU125     -0.2457
     47  OE2        9.7490   30.9630   22.0680 O.co2 125  GLU125     -0.2457
     48  N         19.5990   37.2090    7.9420 N.3   138  MET138     -0.1230
     49  CA        19.0950   35.9270    8.4090 C.3   138  MET138      0.1702
     50  C         17.5640   35.9730    8.3370 C.2   138  MET138      0.2593
     51  O         16.9770   37.0510    8.2360 O.2   138  MET138     -0.2718
     52  CB        19.5640   35.6490    9.8350 C.3   138  MET138      0.0401
     53  CG        19.1240   36.7040   10.8430 C.3   138  MET138      0.0596
     54  SD        17.5180   36.2930   11.5840 S.3   138  MET138     -0.1393
     55  CE        17.3020   37.6510   12.6320 C.3   138  MET138      0.0692
     56  N         16.9520   34.8100    8.4740 N.am  139  GLY139     -0.1942
     57  CA        15.5000   34.7520    8.5390 C.3   139  GLY139      0.2014
     58  C         14.9920   33.4810    9.1440 C.2   139  GLY139      0.2639
     59  O         15.7360   32.5820    9.5270 O.2   139  GLY139     -0.2714
     60  N         13.6560   33.4120    9.2260 N.am  140  ARG140     -0.1963
     61  CA        12.9590   32.3050    9.8970 C.3   140  ARG140      0.1729
     62  C         13.3400   30.9850    9.3040 C.2   140  ARG140      0.2617
     63  O         13.1040   30.7750    8.1020 O.2   140  ARG140     -0.2715
     64  CB        11.4370   32.5140    9.7590 C.3   140  ARG140      0.0348
     65  CG        10.8980   33.7520   10.3690 C.3   140  ARG140      0.0492
     66  CD         9.4080   33.9090   10.1090 C.3   140  ARG140      0.2205
     67  NE         8.8880   35.1680   10.5410 N.pl3 140  ARG140     -0.0865
     68  CZ         7.9750   35.9230   10.0000 C.cat 140  ARG140      0.5346
     69  NH1        7.4370   35.5570    8.8020 N.pl3 140  ARG140      0.1354
     70  NH2        7.6210   37.0660   10.5440 N.pl3 140  ARG140      0.1354
     71  N         13.9030   30.1110   10.1120 N.am  141  GLY141     -0.1940
     72  CA        14.3770   28.7910    9.7150 C.3   141  GLY141      0.2014
     73  C         15.8900   28.6530    9.7850 C.2   141  GLY141      0.2639
     74  O         16.4090   27.5320    9.8320 O.2   141  GLY141     -0.2714
     75  N         16.5990   29.7800    9.8160 N.am  142  ASP142     -0.1957
     76  CA        18.0500   29.7780    9.9290 C.3   142  ASP142      0.1840
     77  C         18.5280   29.4320   11.3580 C.2   142  ASP142      0.2622
     78  O         19.7400   29.2140   11.5410 O.2   142  ASP142     -0.2715
     79  CB        18.6060   31.1350    9.5120 C.3   142  ASP142      0.1450
     80  CG        18.5140   31.4290    8.0100 C.2   142  ASP142      0.3671
     81  OD1       18.4860   30.4920    7.1890 O.co2 142  ASP142     -0.2456
     82  OD2       18.5330   32.6660    7.7030 O.co2 142  ASP142     -0.2456
     83  N         17.6390   29.4230   12.3280 N.am  143  SER143     -0.1950
     84  CA        18.0060   29.1430   13.7120 C.3   143  SER143      0.1924
     85  C         18.7690   27.8510   13.8170 C.2   143  SER143      0.2314
     86  O         18.4500   26.8370   13.1970 O.2   143  SER143     -0.2863
     87  CB        16.7730   29.0140   14.5950 C.3   143  SER143      0.2116
     88  OG        16.1280   30.2540   14.7330 O.3   143  SER143     -0.2180
     89  N         23.0280   30.2040   15.2120 N.3   158  MET158     -0.1230
     90  CA        22.0230   31.2490   15.0620 C.3   158  MET158      0.1702
     91  C         20.9410   31.1420   16.1240 C.2   158  MET158      0.2593
     92  O         20.3300   30.0880   16.3020 O.2   158  MET158     -0.2718
     93  CB        21.3950   31.0750   13.6730 C.3   158  MET158      0.0401
     94  CG        20.3710   32.1320   13.2880 C.3   158  MET158      0.0596
     95  SD        21.1400   33.6540   12.6900 S.3   158  MET158     -0.1393
     96  CE        20.3700   34.9020   13.7420 C.3   158  MET158      0.0692
     97  N         20.6520   32.2800   16.7900 N.am  159  SER159     -0.1938
     98  CA        19.5620   32.3360   17.7620 C.3   159  SER159      0.2055
     99  C         18.3480   33.1050   17.2150 C.2   159  SER159      0.2644
    100  O         17.2430   32.5600   17.1810 O.2   159  SER159     -0.2714
    101  CB        20.0570   32.9190   19.0870 C.3   159  SER159      0.2130
    102  OG        18.9870   33.0670   20.0180 O.3   159  SER159     -0.2179
    103  N         18.5450   34.3590   16.8450 N.am  160  GLY160     -0.1939
    104  CA        17.4070   35.1950   16.4720 C.3   160  GLY160      0.2014
    105  C         17.8560   36.5830   16.1960 C.2   160  GLY160      0.2639
    106  O         19.0280   36.8810   16.0240 O.2   160  GLY160     -0.2714
    107  N         16.8720   37.5060   16.1640 N.am  161  GLY161     -0.1954
    108  CA        17.1610   38.8920   15.9550 C.3   161  GLY161      0.1869
    109  C         15.9730   39.6050   15.3270 C.2   161  GLY161      0.2309
    110  O         14.8410   39.2040   15.5340 O.2   161  GLY161     -0.2863
    111  N         13.7310   40.1800   13.0170 N.3   163  VAL163     -0.1245
    112  CA        12.9720   39.6440   11.8700 C.3   163  VAL163      0.1561
    113  C         12.0250   40.7300   11.3740 C.2   163  VAL163      0.2260
    114  O         11.2570   41.3050   12.1670 O.2   163  VAL163     -0.2867
    115  CB        12.2770   38.3800   12.3130 C.3   163  VAL163      0.0252
    116  CG1       11.4950   37.7500   11.1460 C.3   163  VAL163      0.0019
    117  CG2       13.2420   37.3270   12.8130 C.3   163  VAL163      0.0019
@<TRIPOS>BOND
     1    81    80   ar
     2    82    80   ar
     3    48    49    1
     4    80    79    1
     5    63    62    2
     6    51    50    2
     7    50    49    1
     8    50    56   am
     9    49    52    1
    10    56    57    1
    11    57    58    1
    12    69    68    1
    13    58    60   am
    14    58    59    2
    15    60    61    1
    16    62    61    1
    17    62    71   am
    18    79    76    1
    19    72    73    1
    20    72    71    1
    21    64    61    1
    22    64    65    1
    23    73    75   am
    24    73    74    2
    25    75    76    1
    26    52    53    1
    27    76    77    1
    28    68    67    2
    29    68    70    1
    30    66    65    1
    31    66    67    1
    32    53    54    1
    33   116   115    1
    34    77    78    2
    35    77    83   am
    36   113   112    1
    37   113   114    2
    38    54    55    1
    39   112   115    1
    40   112   111    1
    41   115   117    1
    42    83    84    1
    43    95    94    1
    44    95    96    1
    45    86    85    2
    46    94    93    1
    47    93    90    1
    48    84    85    1
    49    84    87    1
    50    87    88    1
    51    90    89    1
    52    90    91    1
    53   109   110    2
    54   109   108    1
    55   108   107    1
    56   106   105    2
    57    91    92    2
    58    91    97   am
    59   107   105   am
    60   105   104    1
    61   104   103    1
    62    97    98    1
    63   103    99   am
    64   100    99    2
    65    99    98    1
    66    10     9   ar
    67    10     8   ar
    68    98   101    1
    69     9     7   ar
    70     8     6   ar
    71   101   102    1
    72     7     6   ar
    73     6     5    1
    74    33    32    1
    75     4     3    2
    76     3     2    1
    77    30    32   ar
    78    30    28   ar
    79    32    31   ar
    80     5     2    1
    81    28    27   ar
    82     2     1    1
    83    31    29   ar
    84    47    45   ar
    85    27    29   ar
    86    27    26    1
    87    46    45   ar
    88    45    44    1
    89    26    23    1
    90    38    35    1
    91    21    19   ar
    92    21    20   ar
    93    19    17   ar
    94    23    22    1
    95    23    24    1
    96    34    24   am
    97    34    35    1
    98    20    18   ar
    99    17    16   ar
   100    24    25    2
   101    35    36    1
   102    18    16   ar
   103    16    15    1
   104    44    43    1
   105    15    12    1
   106    39    36   am
   107    39    40    1
   108    36    37    2
   109    43    40    1
   110    40    41    1
   111    12    11    1
   112    12    13    1
   113    13    14    2
   114    41    42    2
