@<TRIPOS>MOLECULE
tmp/2h5eA00.pdb
 129 127 0 0 0
SMALL
GASTEIGER

@<TRIPOS>ATOM
      1  N          4.2870   31.0780   -2.1350 N.3    18  SER18      -0.1202
      2  CA         4.0100   29.7240   -2.6150 C.3    18  SER18       0.2020
      3  C          3.2600   29.7200   -3.9460 C.2    18  SER18       0.2619
      4  O          2.5920   30.7020   -4.2820 O.2    18  SER18      -0.2717
      5  CB         3.1910   28.9670   -1.5610 C.3    18  SER18       0.2103
      6  OG         1.9410   29.6020   -1.3190 O.3    18  SER18      -0.2182
      7  N          3.3680   28.6200   -4.7010 N.am   19  HIS19      -0.1961
      8  CA         2.5490   28.4430   -5.9070 C.3    19  HIS19       0.1772
      9  C          1.1580   28.0480   -5.4380 C.2    19  HIS19       0.2462
     10  O          1.0470   27.4300   -4.3780 O.2    19  HIS19      -0.2730
     11  CB         3.1120   27.3610   -6.8470 C.3    19  HIS19       0.0785
     12  CG         2.4940   27.3770   -8.2150 C.ar   19  HIS19       0.0821
     13  ND1        1.3750   26.6380   -8.5440 N.ar   19  HIS19      -0.2267
     14  CD2        2.8090   28.0930   -9.3220 C.ar   19  HIS19       0.1154
     15  CE1        1.0450   26.8840   -9.8020 C.ar   19  HIS19       0.1986
     16  NE2        1.9020   27.7620  -10.2960 N.ar   19  HIS19      -0.2212
     17  N          0.1020   28.4350   -6.1660 N.am   20  PRO20      -0.2716
     18  CA        -1.2490   27.9670   -5.8380 C.3    20  PRO20       0.1536
     19  C         -1.3240   26.4510   -5.7800 C.2    20  PRO20       0.2599
     20  O         -0.7310   25.7820   -6.6220 O.2    20  PRO20      -0.2715
     21  CB        -2.1110   28.5300   -6.9730 C.3    20  PRO20       0.0310
     22  CG        -1.3940   29.7440   -7.4300 C.3    20  PRO20       0.0237
     23  CD         0.0720   29.4010   -7.2810 C.3    20  PRO20       0.0939
     24  N         -2.0430   25.9550   -4.7740 N.am   21  ASP21      -0.1958
     25  CA        -2.1740   24.5250   -4.4080 C.3    21  ASP21       0.1840
     26  C         -0.9730   23.8850   -3.6450 C.2    21  ASP21       0.2622
     27  O         -0.9900   22.6810   -3.3590 O.2    21  ASP21      -0.2715
     28  CB        -2.6210   23.6540   -5.6090 C.3    21  ASP21       0.1450
     29  CG        -3.8870   24.2020   -6.3060 C.2    21  ASP21       0.3671
     30  OD1       -3.9680   24.1050   -7.5560 O.co2  21  ASP21      -0.2456
     31  OD2       -4.8420   24.7610   -5.6950 O.co2  21  ASP21      -0.2456
     32  N          0.0290   24.6750   -3.2600 N.am   22  ALA22      -0.1963
     33  CA         1.2090   24.1200   -2.5730 C.3    22  ALA22       0.1728
     34  C          0.9740   23.8520   -1.0670 C.2    22  ALA22       0.2617
     35  O          1.5560   22.9160   -0.4910 O.2    22  ALA22      -0.2715
     36  CB         2.4120   25.0210   -2.7780 C.3    22  ALA22       0.0334
     37  N          0.1350   24.6720   -0.4370 N.am   23  GLY23      -0.1940
     38  CA        -0.3020   24.4320    0.9370 C.3    23  GLY23       0.2014
     39  C         -0.2630   25.6040    1.9150 C.2    23  GLY23       0.2639
     40  O         -0.1590   25.3880    3.1230 O.2    23  GLY23      -0.2714
     41  N         -0.3440   26.8330    1.4090 N.am   24  LYS24      -0.1963
     42  CA        -0.3570   28.0260    2.2520 C.3    24  LYS24       0.1728
     43  C         -1.4960   28.0110    3.2800 C.2    24  LYS24       0.2617
     44  O         -1.2950   28.2910    4.4620 O.2    24  LYS24      -0.2715
     45  CB        -0.4790   29.2730    1.3670 C.3    24  LYS24       0.0311
     46  CG        -0.4170   30.6060    2.1020 C.3    24  LYS24       0.0038
     47  CD        -0.1840   31.7470    1.1200 C.3    24  LYS24       0.0206
     48  CE        -1.4200   32.0490    0.2920 C.3    24  LYS24       0.1093
     49  NZ        -2.5290   32.5390    1.1650 N.3    24  LYS24      -0.1314
     50  N         -2.6880   27.6840    2.8000 N.am   25  THR25      -0.1937
     51  CA        -3.9000   27.7030    3.6090 C.3    25  THR25       0.2028
     52  C         -3.8600   26.6410    4.6900 C.2    25  THR25       0.2642
     53  O         -4.3000   26.8880    5.8200 O.2    25  THR25      -0.2714
     54  CB        -5.1370   27.4640    2.7200 C.3    25  THR25       0.1808
     55  OG1       -5.1080   28.3610    1.6060 O.3    25  THR25      -0.2208
     56  CG2       -6.4420   27.7920    3.4670 C.3    25  THR25       0.0379
     57  N         -3.3470   25.4630    4.3380 N.am   26  THR26      -0.1950
     58  CA        -3.2820   24.3580    5.2730 C.3    26  THR26       0.1897
     59  C         -2.2490   24.6770    6.3370 C.2    26  THR26       0.2313
     60  O         -2.4980   24.4630    7.5160 O.2    26  THR26      -0.2863
     61  CB        -2.9430   23.0260    4.5680 C.3    26  THR26       0.1794
     62  OG1       -3.8300   22.8120    3.4660 O.3    26  THR26      -0.2208
     63  CG2       -3.2300   21.8400    5.4700 C.3    26  THR26       0.0378
     64  N         -5.1320   33.1380   -5.1670 N.3    59  HIS59      -0.1241
     65  CA        -6.1500   32.5220   -6.0150 C.3    59  HIS59       0.1621
     66  C         -6.8010   33.5810   -6.9220 C.2    59  HIS59       0.2264
     67  O         -6.0890   34.2910   -7.6390 O.2    59  HIS59      -0.2867
     68  CB        -7.1550   31.7420   -5.1590 C.3    59  HIS59       0.0745
     69  CG        -6.5390   30.5910   -4.4240 C.ar   59  HIS59       0.0817
     70  ND1       -5.5960   29.7670   -4.9980 N.ar   59  HIS59      -0.2268
     71  CD2       -6.7200   30.1340   -3.1610 C.ar   59  HIS59       0.1154
     72  CE1       -5.2250   28.8490   -4.1240 C.ar   59  HIS59       0.1986
     73  NE2       -5.8910   29.0500   -3.0010 N.ar   59  HIS59      -0.2212
     74  N          6.6480   20.4430    1.4850 N.3   109  ASN109     -0.1225
     75  CA         5.3510   19.9720    1.9670 C.3   109  ASN109      0.1785
     76  C          4.8730   18.6910    1.2590 C.2   109  ASN109      0.2597
     77  O          5.4110   18.3000    0.2240 O.2   109  ASN109     -0.2718
     78  CB         4.3360   21.1090    1.7690 C.3   109  ASN109      0.1169
     79  CG         2.9740   20.8150    2.3730 C.2   109  ASN109      0.2627
     80  OD1        2.8770   20.1730    3.4060 O.2   109  ASN109     -0.2716
     81  ND2        1.9110   21.2830    1.7150 N.am  109  ASN109     -0.0877
     82  N          3.8820   18.0340    1.8610 N.am  110  LYS110     -0.1980
     83  CA         3.1470   16.9050    1.2740 C.3   110  LYS110      0.1596
     84  C          3.9310   15.5970    1.3350 C.2   110  LYS110      0.2287
     85  O          3.8530   14.7700    0.4300 O.2   110  LYS110     -0.2864
     86  CB         2.6960   17.1920   -0.1640 C.3   110  LYS110      0.0298
     87  CG         2.0020   18.5120   -0.3570 C.3   110  LYS110      0.0038
     88  CD         1.0100   18.4820   -1.5200 C.3   110  LYS110      0.0206
     89  CE         0.2080   19.7860   -1.5910 C.3   110  LYS110      0.1093
     90  NZ        -0.6600   19.9010   -2.7740 N.3   110  LYS110     -0.1314
     91  N          3.1880   13.1410    3.1070 N.3   112  ASP112     -0.1225
     92  CA         2.1870   12.0490    3.1350 C.3   112  ASP112      0.1805
     93  C          2.1890   11.2620    1.8620 C.2   112  ASP112      0.2597
     94  O          1.8910   10.0750    1.8670 O.2   112  ASP112     -0.2718
     95  CB         0.7450   12.5580    3.1730 C.3   112  ASP112      0.1424
     96  CG         0.5410   13.6240    4.1460 C.2   112  ASP112      0.3668
     97  OD1        0.5060   13.2900    5.3590 O.co2 112  ASP112     -0.2456
     98  OD2        0.4020   14.8160    3.7760 O.co2 112  ASP112     -0.2456
     99  N          2.3790   11.9890    0.7640 N.am  113  ARG113     -0.1979
    100  CA         2.3030   11.4440   -0.5750 C.3   113  ARG113      0.1597
    101  C          3.7190   11.2920   -1.0860 C.2   113  ARG113      0.2287
    102  O          4.6560   11.8110   -0.4800 O.2   113  ARG113     -0.2864
    103  CB         1.4520   12.3630   -1.4820 C.3   113  ARG113      0.0334
    104  CG        -0.0780   12.3510   -1.1870 C.3   113  ARG113      0.0492
    105  CD        -0.5590   11.1000   -0.4040 C.3   113  ARG113      0.2205
    106  NE        -2.0070   10.9770   -0.2090 N.pl3 113  ARG113     -0.0865
    107  CZ        -2.8710   10.4650   -1.0940 C.cat 113  ARG113      0.5346
    108  NH1       -2.4720   10.0410   -2.2910 N.pl3 113  ARG113      0.1354
    109  NH2       -4.1630   10.3970   -0.7780 N.pl3 113  ARG113      0.1354
    110  N          4.5210   17.5110    6.6480 N.3   225  THR225     -0.1203
    111  CA         3.1880   17.4850    6.0720 C.3   225  THR225      0.1994
    112  C          2.2800   18.3900    6.8730 C.2   225  THR225      0.2618
    113  O          2.1010   18.2370    8.0780 O.2   225  THR225     -0.2717
    114  CB         2.5910   16.0700    6.0260 C.3   225  THR225      0.1784
    115  OG1        1.1820   16.1760    5.8300 O.3   225  THR225     -0.2211
    116  CG2        2.7090   15.3360    7.3690 C.3   225  THR225      0.0376
    117  N          1.6950   19.3190    6.1660 N.am  226  ALA226     -0.1965
    118  CA         0.8140   20.2940    6.7870 C.3   226  ALA226      0.1728
    119  C         -0.5510   19.6930    7.0900 C.2   226  ALA226      0.2616
    120  O         -1.1850   20.0440    8.0850 O.2   226  ALA226     -0.2715
    121  CB         0.6680   21.5180    5.8980 C.3   226  ALA226      0.0334
    122  N         -0.9910   18.8110    6.2000 N.am  227  LEU227     -0.1977
    123  CA        -2.2430   18.1180    6.3750 C.3   227  LEU227      0.1596
    124  C         -2.2190   17.2730    7.6520 C.2   227  LEU227      0.2287
    125  O         -3.2010   17.2140    8.3650 O.2   227  LEU227     -0.2864
    126  CB        -2.5160   17.2420    5.1530 C.3   227  LEU227      0.0297
    127  CG        -3.9180   16.6180    5.0120 C.3   227  LEU227      0.0022
    128  CD1       -5.0180   17.6870    5.1640 C.3   227  LEU227      0.0001
    129  CD2       -4.0510   15.8580    3.6740 C.3   227  LEU227      0.0001
@<TRIPOS>BOND
     1    16    15   ar
     2    16    14   ar
     3    15    13   ar
     4    14    12   ar
     5    13    12   ar
     6    12    11    1
     7    67    66    2
     8    30    29   ar
     9    22    23    1
    10    22    21    1
    11    23    17    1
    12    21    18    1
    13    66    65    1
    14    11     8    1
    15    20    19    2
    16    29    31   ar
    17    29    28    1
    18    17    18    1
    19    17     9   am
    20    65    64    1
    21    65    68    1
    22     8     9    1
    23     8     7    1
    24    18    19    1
    25    19    24   am
    26    28    25    1
    27     9    10    2
    28    68    69    1
    29    70    69   ar
    30    70    72   ar
    31    24    25    1
    32     7     3   am
    33    69    71   ar
    34    25    26    1
    35     4     3    2
    36    72    73   ar
    37     3     2    1
    38    26    27    2
    39    26    32   am
    40    32    33    1
    41    71    73   ar
    42    36    33    1
    43    90    89    1
    44     2     1    1
    45     2     5    1
    46    33    34    1
    47   108   107    1
    48    89    88    1
    49     5     6    1
    50    88    87    1
    51   103   104    1
    52   103   100    1
    53   104   105    1
    54   107   109    1
    55   107   106    2
    56   101   100    1
    57   101   102    2
    58    34    35    2
    59    34    37   am
    60   100    99    1
    61    37    38    1
    62   105   106    1
    63    87    86    1
    64    86    83    1
    65    77    76    2
    66    48    47    1
    67    48    49    1
    68    85    84    2
    69    99    93   am
    70    38    39    1
    71    47    46    1
    72    76    82   am
    73    76    75    1
    74    83    84    1
    75    83    82    1
    76    45    46    1
    77    45    42    1
    78    41    39   am
    79    41    42    1
    80    74    75    1
    81    55    54    1
    82    81    79   am
    83    78    75    1
    84    78    79    1
    85    93    94    2
    86    93    92    1
    87    39    40    2
    88    42    43    1
    89    79    80    2
    90    54    56    1
    91    54    51    1
    92    50    43   am
    93    50    51    1
    94    91    92    1
    95    92    95    1
    96    95    96    1
    97    43    44    2
    98    62    61    1
    99    51    52    1
   100   129   127    1
   101    98    96   ar
   102    96    97   ar
   103    57    52   am
   104    57    58    1
   105    61    58    1
   106    61    63    1
   107    52    53    2
   108   127   126    1
   109   127   128    1
   110   126   123    1
   111    58    59    1
   112   115   114    1
   113   121   118    1
   114   114   111    1
   115   114   116    1
   116   111   110    1
   117   111   112    1
   118   117   118    1
   119   117   112   am
   120   122   123    1
   121   122   119   am
   122    59    60    2
   123   123   124    1
   124   118   119    1
   125   112   113    2
   126   119   120    2
   127   124   125    2
