@<TRIPOS>MOLECULE
tmp/2h5jC00.pdb
 78 75 0 0 0
SMALL
GASTEIGER

@<TRIPOS>ATOM
      1  N         17.4100    7.4640   -4.8550 N.3    28  THR28      -0.1203
      2  CA        16.2680    7.1700   -5.7020 C.3    28  THR28       0.1994
      3  C         15.1400    8.1750   -5.5110 C.2    28  THR28       0.2619
      4  O         14.9640    8.7550   -4.4430 O.2    28  THR28      -0.2717
      5  CB        15.7030    5.7640   -5.4230 C.3    28  THR28       0.1784
      6  OG1       15.2000    5.7270   -4.0800 O.3    28  THR28      -0.2211
      7  CG2       16.8000    4.7200   -5.5150 C.3    28  THR28       0.0376
      8  N         14.3790    8.3580   -6.5870 N.am   29  SER29      -0.1937
      9  CA        13.1960    9.2170   -6.5100 C.3    29  SER29       0.2055
     10  C         12.1970    8.5360   -5.5840 C.2    29  SER29       0.2643
     11  O         11.9390    7.3420   -5.7560 O.2    29  SER29      -0.2714
     12  CB        12.6880    9.4630   -7.9240 C.3    29  SER29       0.2130
     13  OG        11.3100    9.7640   -7.9790 O.3    29  SER29      -0.2179
     14  N         11.6500    9.2450   -4.6090 N.am   30  ARG30      -0.1963
     15  CA        10.7840    8.6550   -3.5850 C.3    30  ARG30       0.1729
     16  C          9.3500    8.5140   -4.0790 C.2    30  ARG30       0.2616
     17  O          8.3780    9.0860   -3.5820 O.2    30  ARG30      -0.2715
     18  CB        10.8960    9.4800   -2.2850 C.3    30  ARG30       0.0348
     19  CG        12.2890    9.4720   -1.6620 C.3    30  ARG30       0.0492
     20  CD        12.3370   10.0110   -0.2200 C.3    30  ARG30       0.2205
     21  NE        11.2630    9.4110    0.5560 N.pl3  30  ARG30      -0.0865
     22  CZ        10.0970    9.9340    0.8850 C.cat  30  ARG30       0.5346
     23  NH1        9.8020   11.1690    0.5100 N.pl3  30  ARG30       0.1354
     24  NH2        9.2070    9.2430    1.5940 N.pl3  30  ARG30       0.1354
     25  N          9.1680    7.6910   -5.1170 N.am   31  SER31      -0.1950
     26  CA         7.8650    7.4060   -5.6870 C.3    31  SER31       0.1924
     27  C          6.8400    6.9810   -4.6380 C.2    31  SER31       0.2314
     28  O          7.0850    6.0720   -3.8450 O.2    31  SER31      -0.2863
     29  CB         7.9520    6.2720   -6.7180 C.3    31  SER31       0.2116
     30  OG         8.7320    6.6270   -7.8410 O.3    31  SER31      -0.2180
     31  N         11.1640   11.8290    3.5370 N.3    86  SER86      -0.1202
     32  CA        12.3970   11.8160    2.7560 C.3    86  SER86       0.2020
     33  C         13.2420   10.5780    2.9840 C.2    86  SER86       0.2619
     34  O         12.9070    9.6050    3.6510 O.2    86  SER86      -0.2717
     35  CB        13.2040   13.0710    3.0890 C.3    86  SER86       0.2103
     36  OG        14.4410   13.0950    2.3970 O.3    86  SER86      -0.2182
     37  N         14.4270   10.5990    2.3760 N.am   87  HIS87      -0.1961
     38  CA        15.3920    9.5620    2.7200 C.3    87  HIS87       0.1787
     39  C         15.9410    9.9190    4.1000 C.2    87  HIS87       0.2620
     40  O         15.7570   11.0560    4.5470 O.2    87  HIS87      -0.2715
     41  CB        16.5040    9.4690    1.6830 C.3    87  HIS87       0.0785
     42  CG        16.0850    8.7920    0.4100 C.ar   87  HIS87       0.0821
     43  ND1       15.9190    7.4240    0.3060 N.ar   87  HIS87      -0.2267
     44  CD2       15.7950    9.2960   -0.8130 C.ar   87  HIS87       0.1154
     45  CE1       15.5460    7.1110   -0.9260 C.ar   87  HIS87       0.1986
     46  NE2       15.4650    8.2320   -1.6240 N.ar   87  HIS87      -0.2212
     47  N         16.5960    8.9890    4.7740 N.am   88  GLY88      -0.1954
     48  CA        17.1850    9.2940    6.0680 C.3    88  GLY88       0.1869
     49  C         18.1660    8.2210    6.5060 C.2    88  GLY88       0.2309
     50  O         18.2920    7.1870    5.8470 O.2    88  GLY88      -0.2863
     51  N          8.8480   10.1450    8.3060 N.3   127  GLN127     -0.1231
     52  CA         8.8050    9.0060    7.3880 C.3   127  GLN127      0.1698
     53  C         10.1170    9.0240    6.6230 C.2   127  GLN127      0.2592
     54  O         10.3660    9.8960    5.8010 O.2   127  GLN127     -0.2718
     55  CB         7.5870    9.0640    6.4800 C.3   127  GLN127      0.0381
     56  CG         7.6720    8.1300    5.2770 C.3   127  GLN127      0.0905
     57  CD         7.7930    6.6830    5.7180 C.2   127  GLN127      0.2608
     58  OE1        7.0210    6.1730    6.5260 O.2   127  GLN127     -0.2717
     59  NE2        8.7890    6.0190    5.1630 N.am  127  GLN127     -0.0878
     60  N         10.9720    8.0610    6.9390 N.am  128  ALA128     -0.1966
     61  CA        12.3230    8.0090    6.3970 C.3   128  ALA128      0.1728
     62  C         13.0850    6.8690    7.0650 C.2   128  ALA128      0.2616
     63  O         12.7380    6.4900    8.1910 O.2   128  ALA128     -0.2715
     64  CB        13.0310    9.3360    6.6130 C.3   128  ALA128      0.0334
     65  N         14.0870    6.3370    6.3820 N.am  129  CYS129     -0.1968
     66  CA        14.8480    5.2080    6.9120 C.3   129  CYS129      0.1712
     67  C         15.7010    5.6250    8.1100 C.2   129  CYS129      0.2296
     68  O         16.0720    6.8000    8.2070 O.2   129  CYS129     -0.2864
     69  CB        15.7070    4.6150    5.7930 C.3   129  CYS129      0.0983
     70  SG        14.7320    3.7780    4.4980 S.3   129  CYS129     -0.0798
     71  N         16.6470   -4.9890    8.0440 N.3   134  LEU134     -0.1245
     72  CA        15.3260   -5.4780    7.6720 C.3   134  LEU134      0.1561
     73  C         14.7750   -6.3710    8.7780 C.2   134  LEU134      0.2260
     74  O         15.5460   -7.1540    9.3440 O.2   134  LEU134     -0.2867
     75  CB        15.3800   -6.2270    6.3350 C.3   134  LEU134      0.0270
     76  CG        15.8080   -5.3540    5.1490 C.3   134  LEU134      0.0019
     77  CD1       16.4990   -6.1750    4.0760 C.3   134  LEU134      0.0001
     78  CD2       14.6010   -4.6410    4.5710 C.3   134  LEU134      0.0001
@<TRIPOS>BOND
     1    13    12    1
     2    12     9    1
     3    30    29    1
     4    29    26    1
     5     8     9    1
     6     8     3   am
     7     9    10    1
     8    11    10    2
     9     2     3    1
    10     2     5    1
    11     2     1    1
    12    26    25    1
    13    26    27    1
    14    10    14   am
    15     7     5    1
    16     3     4    2
    17     5     6    1
    18    25    16   am
    19    27    28    2
    20    14    15    1
    21    16    15    1
    22    16    17    2
    23    15    18    1
    24    18    19    1
    25    19    20    1
    26    46    45   ar
    27    46    44   ar
    28    45    43   ar
    29    44    42   ar
    30    20    21    1
    31    43    42   ar
    32    42    41    1
    33    23    22    1
    34    21    22    2
    35    22    24    1
    36    41    38    1
    37    37    38    1
    38    37    33   am
    39    36    35    1
    40    38    39    1
    41    32    33    1
    42    32    35    1
    43    32    31    1
    44    33    34    2
    45    77    76    1
    46    39    40    2
    47    39    47   am
    48    70    69    1
    49    78    76    1
    50    47    48    1
    51    76    75    1
    52    59    57   am
    53    56    57    1
    54    56    55    1
    55    57    58    2
    56    69    66    1
    57    54    53    2
    58    50    49    2
    59    48    49    1
    60    75    72    1
    61    65    66    1
    62    65    62   am
    63    61    64    1
    64    61    60    1
    65    61    62    1
    66    55    52    1
    67    53    60   am
    68    53    52    1
    69    66    67    1
    70    62    63    2
    71    52    51    1
    72    72    71    1
    73    72    73    1
    74    67    68    2
    75    73    74    2
