@<TRIPOS>MOLECULE
tmp/2h5jD00.pdb
 129 132 0 0 0
SMALL
GASTEIGER

@<TRIPOS>ATOM
      1  N         15.2450    0.1410    7.9730 N.3    20  TYR20      -0.1227
      2  CA        14.6070    0.6760    6.7870 C.3    20  TYR20       0.1736
      3  C         13.1700    1.1060    7.0600 C.2    20  TYR20       0.2596
      4  O         12.5040    0.5650    7.9430 O.2    20  TYR20      -0.2718
      5  CB        14.4910   -0.3640    5.6740 C.3    20  TYR20       0.0548
      6  CG        15.6910   -0.6250    4.8150 C.ar   20  TYR20      -0.0200
      7  CD1       16.1830    0.3230    3.9300 C.ar   20  TYR20      -0.0009
      8  CD2       16.3290   -1.8560    4.9010 C.ar   20  TYR20      -0.0009
      9  CE1       17.2930    0.0230    3.1630 C.ar   20  TYR20       0.0417
     10  CE2       17.4340   -2.1580    4.1350 C.ar   20  TYR20       0.0417
     11  CZ        17.9070   -1.2070    3.2640 C.ar   20  TYR20       0.1957
     12  OH        19.0150   -1.5030    2.4980 O.3    20  TYR20      -0.2866
     13  N         12.6560    2.0540    6.2900 N.am   21  SER21      -0.1938
     14  CA        11.2250    2.3460    6.3450 C.3    21  SER21       0.2055
     15  C         10.6150    2.0080    4.9840 C.2    21  SER21       0.2643
     16  O         11.2680    2.2600    3.9680 O.2    21  SER21      -0.2714
     17  CB        10.9280    3.8050    6.6600 C.3    21  SER21       0.2130
     18  OG         9.5410    3.9370    6.9420 O.3    21  SER21      -0.2179
     19  N          9.4140    1.4540    4.9460 N.am   22  TRP22      -0.1959
     20  CA         8.8800    1.0240    3.6520 C.3    22  TRP22       0.1771
     21  C          7.8900    2.0080    3.0510 C.2    22  TRP22       0.2620
     22  O          7.0070    2.6010    3.6720 O.2    22  TRP22      -0.2715
     23  CB         8.2190   -0.3540    3.8080 C.3    22  TRP22       0.0590
     24  CG         9.2320   -1.4440    3.9610 C.ar   22  TRP22       0.0006
     25  CD1        9.7600   -1.9020    5.1380 C.ar   22  TRP22       0.0946
     26  CD2        9.8440   -2.2080    2.9190 C.ar   22  TRP22       0.0152
     27  NE1       10.6610   -2.9090    4.8830 N.ar   22  TRP22      -0.2442
     28  CE2       10.7300   -3.1160    3.5310 C.ar   22  TRP22       0.0810
     29  CE3        9.7290   -2.2190    1.5260 C.ar   22  TRP22       0.0012
     30  CZ2       11.4900   -4.0160    2.7920 C.ar   22  TRP22       0.0191
     31  CZ3       10.4850   -3.1140    0.7950 C.ar   22  TRP22       0.0001
     32  CH2       11.3580   -4.0030    1.4320 C.ar   22  TRP22       0.0015
     33  N          8.0500    2.1650    1.7370 N.am   23  ARG23      -0.1963
     34  CA         7.1810    3.0570    0.9750 C.3    23  ARG23       0.1729
     35  C          6.5950    2.3540   -0.2410 C.2    23  ARG23       0.2616
     36  O          7.3670    1.8240   -1.0430 O.2    23  ARG23      -0.2715
     37  CB         7.9980    4.2800    0.5390 C.3    23  ARG23       0.0348
     38  CG         7.2410    5.2450   -0.3670 C.3    23  ARG23       0.0492
     39  CD         8.0790    6.4650   -0.6960 C.3    23  ARG23       0.2205
     40  NE         9.5130    6.2040   -0.6850 N.pl3  23  ARG23      -0.0865
     41  CZ        10.2290    5.7150   -1.6840 C.cat  23  ARG23       0.5346
     42  NH1       11.5320    5.5250   -1.5430 N.pl3  23  ARG23       0.1354
     43  NH2        9.6520    5.4060   -2.8430 N.pl3  23  ARG23       0.1354
     44  N          5.2790    2.3340   -0.4220 N.am   24  ASN24      -0.1958
     45  CA         4.7280    1.7780   -1.6560 C.3    24  ASN24       0.1819
     46  C          4.5250    2.8860   -2.6990 C.2    24  ASN24       0.2622
     47  O          3.8380    3.8710   -2.4360 O.2    24  ASN24      -0.2715
     48  CB         3.4050    1.0540   -1.4340 C.3    24  ASN24       0.1195
     49  CG         2.8970    0.3290   -2.6700 C.2    24  ASN24       0.2630
     50  OD1        2.2430    0.9050   -3.5430 O.2    24  ASN24      -0.2716
     51  ND2        3.1970   -0.9630   -2.7480 N.am   24  ASN24      -0.0877
     52  N          5.1270    2.6610   -3.8520 N.am   25  SER25      -0.1936
     53  CA         5.0660    3.5300   -5.0100 C.3    25  SER25       0.2055
     54  C          3.6680    4.0130   -5.3550 C.2    25  SER25       0.2642
     55  O          3.5370    5.1010   -5.9020 O.2    25  SER25      -0.2714
     56  CB         5.6090    2.7900   -6.2460 C.3    25  SER25       0.2130
     57  OG         6.9200    3.2580   -6.5240 O.3    25  SER25      -0.2179
     58  N          2.6440    3.2320   -5.0570 N.am   26  LYS26      -0.1977
     59  CA         1.2840    3.5080   -5.4820 C.3    26  LYS26       0.1596
     60  C          0.3960    4.0000   -4.3520 C.2    26  LYS26       0.2287
     61  O         -0.4340    4.8970   -4.5070 O.2    26  LYS26      -0.2864
     62  CB         0.7070    2.2110   -6.0620 C.3    26  LYS26       0.0298
     63  CG        -0.7250    2.2870   -6.5580 C.3    26  LYS26       0.0038
     64  CD        -0.9480    1.2530   -7.6590 C.3    26  LYS26       0.0206
     65  CE        -1.3680   -0.0920   -7.0930 C.3    26  LYS26       0.1093
     66  NZ        -0.9040   -1.2240   -7.9450 N.3    26  LYS26      -0.1314
     67  N          3.6050    5.5370    1.7840 N.3    29  SER29      -0.1202
     68  CA         4.3800    4.7490    2.7490 C.3    29  SER29       0.2020
     69  C          3.4290    4.0350    3.6940 C.2    29  SER29       0.2618
     70  O          2.3240    4.5140    3.9420 O.2    29  SER29      -0.2717
     71  CB         5.3900    5.6220    3.5050 C.3    29  SER29       0.2103
     72  OG         4.7490    6.5760    4.3320 O.3    29  SER29      -0.2182
     73  N          3.8570    2.8890    4.2270 N.am   30  TRP30      -0.1975
     74  CA         3.0240    2.1410    5.1670 C.3    30  TRP30       0.1640
     75  C          2.6160    2.9880    6.3710 C.2    30  TRP30       0.2290
     76  O          1.4560    2.9820    6.7830 O.2    30  TRP30      -0.2864
     77  CB         3.7480    0.8940    5.6740 C.3    30  TRP30       0.0576
     78  CG         4.2060   -0.0470    4.6080 C.ar   30  TRP30       0.0006
     79  CD1        4.0200    0.0570    3.2570 C.ar   30  TRP30       0.0946
     80  CD2        4.9410   -1.2600    4.8290 C.ar   30  TRP30       0.0152
     81  NE1        4.6010   -1.0200    2.6280 N.ar   30  TRP30      -0.2442
     82  CE2        5.1690   -1.8410    3.5660 C.ar   30  TRP30       0.0810
     83  CE3        5.4270   -1.9080    5.9680 C.ar   30  TRP30       0.0012
     84  CZ2        5.8650   -3.0440    3.4340 C.ar   30  TRP30       0.0191
     85  CZ3        6.1170   -3.0980    5.8330 C.ar   30  TRP30       0.0001
     86  CH2        6.3350   -3.6610    4.5640 C.ar   30  TRP30       0.0015
     87  N          3.4170   -6.2060    4.6510 N.3    64  GLU64      -0.1231
     88  CA         4.5730   -7.0830    4.5380 C.3    64  GLU64       0.1699
     89  C          5.1350   -6.8630    3.1500 C.2    64  GLU64       0.2593
     90  O          4.3410   -6.7510    2.2090 O.2    64  GLU64      -0.2718
     91  CB         4.2070   -8.5420    4.7550 C.3    64  GLU64       0.0402
     92  CG         5.3320   -9.5120    4.4360 C.3    64  GLU64       0.1161
     93  CD         4.9230  -10.9520    4.7130 C.2    64  GLU64       0.3649
     94  OE1        4.3090  -11.2110    5.7710 O.co2  64  GLU64      -0.2457
     95  OE2        5.2130  -11.8270    3.8670 O.co2  64  GLU64      -0.2457
     96  N          6.4500   -6.7660    2.9910 N.am   65  SER65      -0.1938
     97  CA         6.8570   -6.3870    1.6410 C.3    65  SER65       0.2055
     98  C          6.7270   -7.4970    0.6080 C.2    65  SER65       0.2643
     99  O          6.8230   -8.6850    0.9070 O.2    65  SER65      -0.2714
    100  CB         8.3210   -5.9430    1.6850 C.3    65  SER65       0.2130
    101  OG         9.0930   -7.0920    1.9890 O.3    65  SER65      -0.2179
    102  N          6.5400   -7.1140   -0.6510 N.am   66  PHE66      -0.1959
    103  CA         6.6120   -8.0640   -1.7620 C.3    66  PHE66       0.1771
    104  C          7.7440   -7.6010   -2.6700 C.2    66  PHE66       0.2620
    105  O          7.7870   -6.4280   -3.0400 O.2    66  PHE66      -0.2715
    106  CB         5.3060   -8.1590   -2.5340 C.3    66  PHE66       0.0574
    107  CG         5.3410   -9.1070   -3.7210 C.ar   66  PHE66      -0.0200
    108  CD1        5.6410   -8.6400   -4.9900 C.ar   66  PHE66      -0.0042
    109  CD2        5.0750  -10.4560   -3.5550 C.ar   66  PHE66      -0.0042
    110  CE1        5.6720   -9.5050   -6.0700 C.ar   66  PHE66      -0.0003
    111  CE2        5.1060  -11.3290   -4.6280 C.ar   66  PHE66      -0.0003
    112  CZ         5.4130  -10.8510   -5.8870 C.ar   66  PHE66      -0.0000
    113  N          8.6470   -8.5060   -2.9990 N.am   67  SER67      -0.1950
    114  CA         9.7650   -8.1460   -3.8570 C.3    67  SER67       0.1924
    115  C         10.2140   -9.3530   -4.6750 C.2    67  SER67       0.2314
    116  O         10.1150  -10.4630   -4.1410 O.2    67  SER67      -0.2863
    117  CB        10.9060   -7.6330   -2.9780 C.3    67  SER67       0.2116
    118  OG        12.0540   -7.3600   -3.7620 O.3    67  SER67      -0.2180
    119  N         14.7180   -8.4510   -0.1190 N.3    72  PHE72      -0.1241
    120  CA        13.7040   -7.5470    0.3970 C.3    72  PHE72       0.1605
    121  C         12.3230   -8.1570    0.4330 C.2    72  PHE72       0.2264
    122  O         11.3350   -7.4720    0.7010 O.2    72  PHE72      -0.2867
    123  CB        13.6770   -6.2850   -0.4770 C.3    72  PHE72       0.0534
    124  CG        15.0200   -5.5720   -0.4580 C.ar   72  PHE72      -0.0203
    125  CD1       15.9150   -5.7310   -1.4980 C.ar   72  PHE72      -0.0042
    126  CD2       15.3550   -4.7590    0.6120 C.ar   72  PHE72      -0.0042
    127  CE1       17.1280   -5.0740   -1.4610 C.ar   72  PHE72      -0.0003
    128  CE2       16.5630   -4.0920    0.6520 C.ar   72  PHE72      -0.0003
    129  CZ        17.4470   -4.2550   -0.3940 C.ar   72  PHE72      -0.0000
@<TRIPOS>BOND
     1    66    65    1
     2    64    65    1
     3    64    63    1
     4    63    62    1
     5    57    56    1
     6    56    53    1
     7   110   112   ar
     8   110   108   ar
     9    62    59    1
    10    55    54    2
    11   112   111   ar
    12    59    58    1
    13    59    60    1
    14    54    58   am
    15    54    53    1
    16    53    52    1
    17   108   107   ar
    18   115   116    2
    19   115   114    1
    20   111   109   ar
    21    61    60    2
    22   114   113    1
    23   114   117    1
    24    52    46   am
    25   118   117    1
    26   107   109   ar
    27   107   106    1
    28    50    49    2
    29   105   104    2
    30   113   104   am
    31    43    41    1
    32    51    49   am
    33    46    47    2
    34    46    45    1
    35   104   103    1
    36    49    48    1
    37   106   103    1
    38   103   102    1
    39    41    42    1
    40    41    40    2
    41    45    48    1
    42    45    44    1
    43   125   127   ar
    44   125   124   ar
    45   127   129   ar
    46    36    35    2
    47    39    40    1
    48    39    38    1
    49   102    98   am
    50   123   124    1
    51   123   120    1
    52   124   126   ar
    53    44    35   am
    54   129   128   ar
    55    38    37    1
    56    35    34    1
    57   119   120    1
    58   120   121    1
    59   121   122    2
    60    37    34    1
    61    98    99    2
    62    98    97    1
    63   126   128   ar
    64    31    32   ar
    65    31    29   ar
    66    34    33    1
    67    32    30   ar
    68    29    26   ar
    69    97   100    1
    70    97    96    1
    71   100   101    1
    72    33    21   am
    73    67    68    1
    74    90    89    2
    75    12    11    1
    76    81    79   ar
    77    81    82   ar
    78    68    71    1
    79    68    69    1
    80    30    28   ar
    81    26    28   ar
    82    26    24   ar
    83    96    89   am
    84    21    20    1
    85    21    22    2
    86    89    88    1
    87     9    11   ar
    88     9     7   ar
    89    79    78   ar
    90    11    10   ar
    91    84    82   ar
    92    84    86   ar
    93    71    72    1
    94    28    27   ar
    95    82    80   ar
    96    20    23    1
    97    20    19    1
    98    69    70    2
    99    69    73   am
   100    23    24    1
   101    95    93   ar
   102     7     6   ar
   103    24    25   ar
   104    16    15    2
   105    10     8   ar
   106    73    74    1
   107    92    93    1
   108    92    91    1
   109    88    87    1
   110    88    91    1
   111    86    85   ar
   112    78    80   ar
   113    78    77    1
   114    93    94   ar
   115     6     8   ar
   116     6     5    1
   117    80    83   ar
   118    27    25   ar
   119    19    15   am
   120    15    14    1
   121    74    77    1
   122    74    75    1
   123     5     2    1
   124    85    83   ar
   125    13    14    1
   126    13     3   am
   127    14    17    1
   128    75    76    2
   129    17    18    1
   130     2     3    1
   131     2     1    1
   132     3     4    2
