@<TRIPOS>MOLECULE
tmp/2h5kA00.pdb
 118 115 0 0 0
SMALL
GASTEIGER

@<TRIPOS>ATOM
      1  N        -10.3210  -62.9590   19.8100 N.3    11  ARG11      -0.1245
      2  CA        -9.3770  -61.8480   19.6730 C.3    11  ARG11       0.1563
      3  C         -7.9960  -62.3030   20.1110 C.2    11  ARG11       0.2260
      4  O         -6.9680  -61.9080   19.5420 O.2    11  ARG11      -0.2867
      5  CB        -9.7970  -60.6780   20.5540 C.3    11  ARG11       0.0307
      6  CG        -8.6890  -59.7330   20.9130 C.3    11  ARG11       0.0489
      7  CD        -9.2650  -58.5310   21.5930 C.3    11  ARG11       0.2205
      8  NE        -8.2010  -57.6290   21.9920 N.pl3  11  ARG11      -0.0865
      9  CZ        -8.2500  -56.3140   21.8410 C.cat  11  ARG11       0.5346
     10  NH1       -9.3140  -55.7360   21.2960 N.pl3  11  ARG11       0.1354
     11  NH2       -7.2200  -55.5770   22.2330 N.pl3  11  ARG11       0.1354
     12  N        -12.3200  -60.3660   11.6240 N.3    30  ARG30      -0.1245
     13  CA       -13.0890  -61.3220   12.4210 C.3    30  ARG30       0.1563
     14  C        -14.3710  -60.7130   12.9850 C.2    30  ARG30       0.2260
     15  O        -14.5710  -59.4990   12.9390 O.2    30  ARG30      -0.2867
     16  CB       -12.2390  -61.8280   13.5750 C.3    30  ARG30       0.0307
     17  CG       -11.6870  -60.7090   14.4240 C.3    30  ARG30       0.0489
     18  CD       -10.6860  -61.2670   15.3920 C.3    30  ARG30       0.2205
     19  NE       -10.0860  -60.2530   16.2500 N.pl3  30  ARG30      -0.0865
     20  CZ       -10.7750  -59.4110   17.0070 C.cat  30  ARG30       0.5346
     21  NH1      -12.0980  -59.4400   16.9970 N.pl3  30  ARG30       0.1354
     22  NH2      -10.1390  -58.5740   17.8090 N.pl3  30  ARG30       0.1354
     23  N        -16.3340  -59.5090   15.8440 N.3    32  SER32      -0.1202
     24  CA       -16.0500  -59.0320   17.1740 C.3    32  SER32       0.2020
     25  C        -16.6770  -59.9120   18.2290 C.2    32  SER32       0.2619
     26  O        -17.8480  -60.2930   18.1280 O.2    32  SER32      -0.2717
     27  CB       -16.5650  -57.6170   17.3470 C.3    32  SER32       0.2103
     28  OG       -16.3180  -57.1870   18.6750 O.3    32  SER32      -0.2182
     29  N        -15.8830  -60.2460   19.2410 N.am   33  GLU33      -0.1965
     30  CA       -16.3660  -61.0640   20.3390 C.3    33  GLU33       0.1733
     31  C        -17.1340  -60.1080   21.2240 C.2    33  GLU33       0.2617
     32  O        -18.3020  -60.3290   21.5280 O.2    33  GLU33      -0.2715
     33  CB       -15.1920  -61.7030   21.1130 C.3    33  GLU33       0.0429
     34  CG       -14.5590  -62.9360   20.4280 C.3    33  GLU33       0.1163
     35  CD       -15.4630  -64.1960   20.4260 C.2    33  GLU33       0.3649
     36  OE1      -15.6170  -64.8180   21.5050 O.co2  33  GLU33      -0.2457
     37  OE2      -16.0140  -64.5670   19.3510 O.co2  33  GLU33      -0.2457
     38  N        -16.4640  -59.0200   21.5940 N.am   34  SER34      -0.1950
     39  CA       -17.0470  -57.9920   22.4460 C.3    34  SER34       0.1924
     40  C        -18.2240  -57.2650   21.7970 C.2    34  SER34       0.2314
     41  O        -18.8600  -56.4360   22.4340 O.2    34  SER34      -0.2863
     42  CB       -15.9820  -56.9600   22.8460 C.3    34  SER34       0.2116
     43  OG       -15.5820  -56.1540   21.7480 O.3    34  SER34      -0.2180
     44  N        -14.0220  -56.7360   13.4080 N.3    40  SER40      -0.1217
     45  CA       -12.8280  -56.1350   13.9330 C.3    40  SER40       0.1889
     46  C        -11.6400  -56.5200   13.1140 C.2    40  SER40       0.2288
     47  O        -11.5770  -57.6250   12.5550 O.2    40  SER40      -0.2866
     48  CB       -12.6290  -56.5540   15.3620 C.3    40  SER40       0.2089
     49  OG       -13.6340  -55.9270   16.1030 O.3    40  SER40      -0.2183
     50  N         -2.1880  -54.7670   16.6920 N.3    50  GLN50      -0.1231
     51  CA        -3.1740  -53.7630   17.0150 C.3    50  GLN50       0.1698
     52  C         -4.5570  -54.2080   16.5490 C.2    50  GLN50       0.2592
     53  O         -4.6690  -55.0270   15.6410 O.2    50  GLN50      -0.2718
     54  CB        -2.7710  -52.4220   16.4120 C.3    50  GLN50       0.0381
     55  CG        -1.6660  -51.7700   17.1870 C.3    50  GLN50       0.0905
     56  CD        -1.0710  -50.5780   16.4740 C.2    50  GLN50       0.2608
     57  OE1       -1.7480  -49.5820   16.1920 O.2    50  GLN50      -0.2717
     58  NE2        0.2150  -50.6730   16.1810 N.am   50  GLN50      -0.0878
     59  N         -5.6050  -53.6820   17.1830 N.am   51  HIS51      -0.1962
     60  CA        -6.9780  -54.0420   16.8380 C.3    51  HIS51       0.1787
     61  C         -7.8000  -52.8220   16.4480 C.2    51  HIS51       0.2620
     62  O         -7.7250  -51.7750   17.0630 O.2    51  HIS51      -0.2715
     63  CB        -7.6660  -54.7490   18.0200 C.3    51  HIS51       0.0785
     64  CG        -7.0080  -56.0290   18.4330 C.ar   51  HIS51       0.0821
     65  ND1       -7.1750  -57.2120   17.7430 N.ar   51  HIS51      -0.2267
     66  CD2       -6.1440  -56.2980   19.4400 C.ar   51  HIS51       0.1154
     67  CE1       -6.4350  -58.1480   18.3070 C.ar   51  HIS51       0.1986
     68  NE2       -5.8010  -57.6190   19.3360 N.ar   51  HIS51      -0.2212
     69  N         -8.6140  -52.9730   15.4230 N.am   52  PHE52      -0.1960
     70  CA        -9.4320  -51.8800   14.9810 C.3    52  PHE52       0.1771
     71  C        -10.8850  -52.3010   14.9190 C.2    52  PHE52       0.2619
     72  O        -11.1900  -53.4610   14.6770 O.2    52  PHE52      -0.2715
     73  CB        -8.9430  -51.4180   13.6200 C.3    52  PHE52       0.0574
     74  CG        -7.5900  -50.7800   13.6570 C.ar   52  PHE52      -0.0200
     75  CD1       -6.4720  -51.4950   14.0780 C.ar   52  PHE52      -0.0042
     76  CD2       -7.4380  -49.4400   13.2970 C.ar   52  PHE52      -0.0042
     77  CE1       -5.2070  -50.8740   14.1480 C.ar   52  PHE52      -0.0003
     78  CE2       -6.1910  -48.8090   13.3590 C.ar   52  PHE52      -0.0003
     79  CZ        -5.0740  -49.5300   13.7880 C.ar   52  PHE52      -0.0000
     80  N        -11.7710  -51.3450   15.1610 N.am   53  LYS53      -0.1977
     81  CA       -13.1970  -51.5850   15.1190 C.3    53  LYS53       0.1596
     82  C        -13.6040  -51.1320   13.7490 C.2    53  LYS53       0.2287
     83  O        -13.3160  -50.0070   13.3860 O.2    53  LYS53      -0.2864
     84  CB       -13.9010  -50.7310   16.1620 C.3    53  LYS53       0.0298
     85  CG       -14.0020  -51.4010   17.5150 C.3    53  LYS53       0.0038
     86  CD       -14.7290  -50.5270   18.5240 C.3    53  LYS53       0.0206
     87  CE       -13.9100  -49.2750   18.7750 C.3    53  LYS53       0.1093
     88  NZ       -14.5360  -48.3920   19.7770 N.3    53  LYS53      -0.1314
     89  N        -16.0450  -49.6790   11.8460 N.3    55  LEU55      -0.1245
     90  CA       -17.2260  -48.8800   12.0750 C.3    55  LEU55       0.1561
     91  C        -18.1540  -48.8060   10.8840 C.2    55  LEU55       0.2260
     92  O        -17.7430  -49.0270    9.7470 O.2    55  LEU55      -0.2867
     93  CB       -16.8320  -47.4620   12.3960 C.3    55  LEU55       0.0270
     94  CG       -15.7070  -47.2940   13.3620 C.3    55  LEU55       0.0019
     95  CD1      -15.4390  -45.8320   13.6690 C.3    55  LEU55       0.0001
     96  CD2      -16.1080  -48.0220   14.5880 C.3    55  LEU55       0.0001
     97  N        -12.6220  -46.8890    9.0240 N.3    64  LEU64      -0.1231
     98  CA       -11.8970  -47.0570   10.2730 C.3    64  LEU64       0.1693
     99  C        -11.7530  -45.7270   10.9980 C.2    64  LEU64       0.2592
    100  O        -12.0140  -45.6220   12.2080 O.2    64  LEU64      -0.2718
    101  CB       -10.5310  -47.6970   10.0020 C.3    64  LEU64       0.0284
    102  CG       -10.5760  -49.0980    9.3690 C.3    64  LEU64       0.0019
    103  CD1       -9.1680  -49.6020    9.1000 C.3    64  LEU64       0.0001
    104  CD2      -11.2810  -50.0390   10.2960 C.3    64  LEU64       0.0001
    105  N        -11.3630  -44.7120   10.2380 N.am   65  TRP65      -0.1976
    106  CA       -11.1970  -43.3680   10.7720 C.3    65  TRP65       0.1640
    107  C        -11.2480  -42.3120    9.6650 C.2    65  TRP65       0.2290
    108  O        -10.8440  -42.5670    8.5290 O.2    65  TRP65      -0.2864
    109  CB        -9.8800  -43.2490   11.5190 C.3    65  TRP65       0.0576
    110  CG        -8.7240  -43.5550   10.6880 C.ar   65  TRP65       0.0006
    111  CD1       -8.2510  -44.7820   10.3710 C.ar   65  TRP65       0.0946
    112  CD2       -7.8630  -42.6140   10.0540 C.ar   65  TRP65       0.0152
    113  NE1       -7.1250  -44.6670    9.5670 N.ar   65  TRP65      -0.2442
    114  CE2       -6.8750  -43.3410    9.3580 C.ar   65  TRP65       0.0810
    115  CE3       -7.8320  -41.2200   10.0100 C.ar   65  TRP65       0.0012
    116  CZ2       -5.8730  -42.7310    8.6280 C.ar   65  TRP65       0.0191
    117  CZ3       -6.8280  -40.6090    9.2820 C.ar   65  TRP65       0.0001
    118  CH2       -5.8590  -41.3670    8.5970 C.ar   65  TRP65       0.0015
@<TRIPOS>BOND
     1   108   107    2
     2   118   116   ar
     3   118   117   ar
     4   116   114   ar
     5    97    98    1
     6   103   102    1
     7   117   115   ar
     8   114   113   ar
     9   114   112   ar
    10   102   101    1
    11   102   104    1
    12   113   111   ar
    13   107   106    1
    14    92    91    2
    15   101    98    1
    16   115   112   ar
    17   112   110   ar
    18   105   106    1
    19   105    99   am
    20    98    99    1
    21   111   110   ar
    22   110   109    1
    23   106   109    1
    24    91    90    1
    25    99   100    2
    26    12    13    1
    27    89    90    1
    28    90    93    1
    29    93    94    1
    30    13    14    1
    31    13    16    1
    32    47    46    2
    33    15    14    2
    34    46    45    1
    35    76    78   ar
    36    76    74   ar
    37    78    79   ar
    38    94    95    1
    39    94    96    1
    40    83    82    2
    41    44    45    1
    42    16    17    1
    43    73    74    1
    44    73    70    1
    45    74    75   ar
    46    82    81    1
    47    79    77   ar
    48    45    48    1
    49    75    77   ar
    50    17    18    1
    51    72    71    2
    52    71    70    1
    53    71    80   am
    54    70    69    1
    55    81    80    1
    56    81    84    1
    57    48    49    1
    58    18    19    1
    59    69    61   am
    60    53    52    2
    61    23    24    1
    62    84    85    1
    63    58    56   am
    64    57    56    2
    65    19    20    2
    66    54    51    1
    67    54    55    1
    68    61    60    1
    69    61    62    2
    70    56    55    1
    71    52    51    1
    72    52    59   am
    73    50    51    1
    74    60    59    1
    75    60    63    1
    76    21    20    1
    77    20    22    1
    78    24    27    1
    79    24    25    1
    80    27    28    1
    81    85    86    1
    82    65    67   ar
    83    65    64   ar
    84    63    64    1
    85    26    25    2
    86    25    29   am
    87    67    68   ar
    88    64    66   ar
    89    86    87    1
    90    87    88    1
    91    29    30    1
    92    68    66   ar
    93    37    35   ar
    94     4     3    2
    95     2     1    1
    96     2     3    1
    97     2     5    1
    98    30    33    1
    99    30    31    1
   100    35    34    1
   101    35    36   ar
   102    34    33    1
   103     5     6    1
   104     6     7    1
   105    31    32    2
   106    31    38   am
   107    10     9    1
   108     7     8    1
   109    38    39    1
   110    43    42    1
   111    40    41    2
   112    40    39    1
   113     9     8    2
   114     9    11    1
   115    39    42    1
