@<TRIPOS>MOLECULE
tmp/2h5lA01.pdb
 172 163 0 0 0
SMALL
GASTEIGER

@<TRIPOS>ATOM
      1  N         27.8190   18.9140   54.7990 N.3    52  LEU52      -0.1231
      2  CA        26.6340   18.1550   54.4530 C.3    52  LEU52       0.1693
      3  C         27.1140   16.7770   54.0240 C.2    52  LEU52       0.2592
      4  O         28.1090   16.6760   53.3070 O.2    52  LEU52      -0.2718
      5  CB        25.9290   18.8630   53.2990 C.3    52  LEU52       0.0284
      6  CG        24.4370   18.6870   53.0230 C.3    52  LEU52       0.0019
      7  CD1       24.0240   19.7100   51.9740 C.3    52  LEU52       0.0001
      8  CD2       24.1430   17.2720   52.5270 C.3    52  LEU52       0.0001
      9  N         26.4020   15.7250   54.4280 N.am   53  HIS53      -0.1976
     10  CA        26.7960   14.3520   54.1130 C.3    53  HIS53       0.1656
     11  C         27.3820   14.3020   52.7230 C.2    53  HIS53       0.2291
     12  O         26.7780   14.7950   51.7830 O.2    53  HIS53      -0.2864
     13  CB        25.5790   13.4320   54.1950 C.3    53  HIS53       0.0771
     14  CG        24.6590   13.7480   55.3320 C.ar   53  HIS53       0.0820
     15  ND1       24.7000   13.0780   56.5350 N.ar   53  HIS53      -0.2267
     16  CD2       23.6800   14.6710   55.4540 C.ar   53  HIS53       0.1154
     17  CE1       23.7860   13.5730   57.3490 C.ar   53  HIS53       0.1986
     18  NE2       23.1530   14.5400   56.7160 N.ar   53  HIS53      -0.2212
     19  N         27.6940   12.4800   49.8320 N.3    55  THR55      -0.1218
     20  CA        27.1200   11.3820   49.0650 C.3    55  THR55       0.1862
     21  C         27.1270   11.7500   47.5880 C.2    55  THR55       0.2287
     22  O         27.5450   12.8530   47.2130 O.2    55  THR55      -0.2866
     23  CB        25.6790   11.1410   49.5090 C.3    55  THR55       0.1770
     24  OG1       24.9160   12.3270   49.2570 O.3    55  THR55      -0.2211
     25  CG2       25.6220   10.8470   50.9970 C.3    55  THR55       0.0375
     26  N         24.6700   12.4910   45.6750 N.3    57  GLU57      -0.1231
     27  CA        23.7850   13.6310   45.4570 C.3    57  GLU57       0.1699
     28  C         24.4510   14.9190   45.9120 C.2    57  GLU57       0.2592
     29  O         24.3000   15.9610   45.2830 O.2    57  GLU57      -0.2718
     30  CB        22.4730   13.4300   46.2070 C.3    57  GLU57       0.0402
     31  CG        21.7150   12.1970   45.7680 C.3    57  GLU57       0.1161
     32  CD        22.3080   10.9340   46.3340 C.2    57  GLU57       0.3649
     33  OE1       22.0360    9.8370   45.7940 O.co2  57  GLU57      -0.2457
     34  OE2       23.0540   11.0400   47.3290 O.co2  57  GLU57      -0.2457
     35  N         25.1940   14.8530   47.0100 N.am   58  THR58      -0.1953
     36  CA        25.8900   16.0380   47.4960 C.3    58  THR58       0.1897
     37  C         27.0350   16.3650   46.5480 C.2    58  THR58       0.2313
     38  O         27.5120   17.4900   46.5080 O.2    58  THR58      -0.2863
     39  CB        26.4560   15.8240   48.8970 C.3    58  THR58       0.1794
     40  OG1       25.3830   15.7440   49.8390 O.3    58  THR58      -0.2208
     41  CG2       27.3460   16.9730   49.2720 C.3    58  THR58       0.0378
     42  N         24.1160   21.5840   57.0790 N.3   129  ASP129     -0.1239
     43  CA        23.0920   20.5640   57.2740 C.3   129  ASP129      0.1674
     44  C         23.3530   20.0690   58.6930 C.2   129  ASP129      0.2266
     45  O         24.2320   19.2290   58.9020 O.2   129  ASP129     -0.2867
     46  CB        23.2780   19.4270   56.2580 C.3   129  ASP129      0.1410
     47  CG        22.3290   18.2520   56.4920 C.2   129  ASP129      0.3668
     48  OD1       21.9260   18.0270   57.6520 O.co2 129  ASP129     -0.2456
     49  OD2       21.9940   17.5460   55.5100 O.co2 129  ASP129     -0.2456
     50  N         19.4510   23.2200   56.0160 N.3   154  GLU154     -0.1231
     51  CA        18.4450   22.3690   55.3820 C.3   154  GLU154      0.1699
     52  C         17.8360   21.2950   56.2750 C.2   154  GLU154      0.2593
     53  O         16.9150   20.5760   55.8600 O.2   154  GLU154     -0.2718
     54  CB        19.0450   21.6910   54.1470 C.3   154  GLU154      0.0402
     55  CG        20.0100   20.5790   54.4960 C.3   154  GLU154      0.1161
     56  CD        20.4320   19.7730   53.2900 C.2   154  GLU154      0.3649
     57  OE1       21.1950   18.7920   53.4640 O.co2 154  GLU154     -0.2457
     58  OE2       20.0030   20.1210   52.1680 O.co2 154  GLU154     -0.2457
     59  N         18.3440   21.1720   57.4910 N.am  155  THR155     -0.1939
     60  CA        17.8300   20.1550   58.3960 C.3   155  THR155      0.2028
     61  C         16.8310   20.6990   59.4320 C.2   155  THR155      0.2642
     62  O         16.9990   21.7970   59.9690 O.2   155  THR155     -0.2714
     63  CB        19.0000   19.4240   59.0770 C.3   155  THR155      0.1808
     64  OG1       18.6200   18.0690   59.3170 O.3   155  THR155     -0.2208
     65  CG2       19.3820   20.0870   60.3730 C.3   155  THR155      0.0379
     66  N         15.7880   19.9220   59.7090 N.am  156  THR156     -0.1950
     67  CA        14.7650   20.3550   60.6520 C.3   156  THR156      0.1897
     68  C         15.3590   20.7900   61.9710 C.2   156  THR156      0.2313
     69  O         15.0000   21.8340   62.5150 O.2   156  THR156     -0.2863
     70  CB        13.7500   19.2510   60.9560 C.3   156  THR156      0.1794
     71  OG1       13.4440   18.5160   59.7610 O.3   156  THR156     -0.2208
     72  CG2       12.4830   19.8710   61.5060 C.3   156  THR156      0.0378
     73  N         11.0000   20.8740   49.7970 N.3   184  LYS184     -0.1245
     74  CA        12.0310   20.1970   50.5720 C.3   184  LYS184      0.1561
     75  C         11.3790   19.3370   51.6380 C.2   184  LYS184      0.2260
     76  O         11.4730   18.1110   51.6280 O.2   184  LYS184     -0.2867
     77  CB        12.9490   21.2140   51.2590 C.3   184  LYS184      0.0271
     78  CG        14.2320   20.6150   51.8250 C.3   184  LYS184      0.0035
     79  CD        13.9730   19.9050   53.1420 C.3   184  LYS184      0.0206
     80  CE        15.1490   19.0390   53.5720 C.3   184  LYS184      0.1093
     81  NZ        15.1310   18.7980   55.0360 N.3   184  LYS184     -0.1314
     82  N         11.3950   15.6610   50.6810 N.3   188  ASP188     -0.1225
     83  CA        12.6220   15.0460   51.1680 C.3   188  ASP188      0.1805
     84  C         12.3420   14.2470   52.4300 C.2   188  ASP188      0.2597
     85  O         12.3910   13.0190   52.4150 O.2   188  ASP188     -0.2718
     86  CB        13.6760   16.1290   51.4390 C.3   188  ASP188      0.1424
     87  CG        14.9210   15.5900   52.1400 C.2   188  ASP188      0.3668
     88  OD1       14.8690   14.4870   52.7380 O.co2 188  ASP188     -0.2456
     89  OD2       15.9600   16.2830   52.0930 O.co2 188  ASP188     -0.2456
     90  N         12.0310   14.9520   53.5140 N.am  189  ASN189     -0.1974
     91  CA        11.7530   14.3210   54.8010 C.3   189  ASN189      0.1688
     92  C         10.7410   13.1820   54.6940 C.2   189  ASN189      0.2292
     93  O         10.9590   12.1000   55.2470 O.2   189  ASN189     -0.2864
     94  CB        11.2130   15.3470   55.8000 C.3   189  ASN189      0.1181
     95  CG        12.1600   16.5150   56.0220 C.2   189  ASN189      0.2629
     96  OD1       12.9260   16.8930   55.1320 O.2   189  ASN189     -0.2716
     97  ND2       12.1040   17.1000   57.2150 N.am  189  ASN189     -0.0877
     98  N         17.8380   13.1980   62.5390 N.3   299  HIS299     -0.1241
     99  CA        19.1860   13.7610   62.3260 C.3   299  HIS299      0.1621
    100  C         20.3130   13.4410   63.3170 C.2   299  HIS299      0.2264
    101  O         21.4330   13.1640   62.8870 O.2   299  HIS299     -0.2867
    102  CB        19.1180   15.2890   62.1730 C.3   299  HIS299      0.0745
    103  CG        20.4070   15.9000   61.7200 C.ar  299  HIS299      0.0817
    104  ND1       21.3870   15.1740   61.0740 N.ar  299  HIS299     -0.2268
    105  CD2       20.8890   17.1610   61.8360 C.ar  299  HIS299      0.1154
    106  CE1       22.4170   15.9610   60.8110 C.ar  299  HIS299      0.1986
    107  NE2       22.1410   17.1710   61.2640 N.ar  299  HIS299     -0.2212
    108  N         21.8910    8.0110   62.0170 N.3   342  LEU342     -0.1245
    109  CA        20.9880    7.9250   60.8730 C.3   342  LEU342      0.1561
    110  C         21.1790    6.5860   60.1730 C.2   342  LEU342      0.2260
    111  O         22.2410    6.3010   59.6180 O.2   342  LEU342     -0.2867
    112  CB        21.2820    9.0590   59.8830 C.3   342  LEU342      0.0270
    113  CG        20.5110   10.3660   60.0790 C.3   342  LEU342      0.0019
    114  CD1       20.3150   10.6390   61.5580 C.3   342  LEU342      0.0001
    115  CD2       21.2640   11.5020   59.4160 C.3   342  LEU342      0.0001
    116  N         19.3910    5.3670   57.4340 N.3   344  ASN344     -0.1225
    117  CA        19.3560    5.3950   55.9750 C.3   344  ASN344      0.1785
    118  C         20.7010    5.8010   55.3760 C.2   344  ASN344      0.2597
    119  O         21.1370    5.2370   54.3710 O.2   344  ASN344     -0.2718
    120  CB        18.2590    6.3450   55.4730 C.3   344  ASN344      0.1169
    121  CG        18.3370    7.7080   56.1060 C.2   344  ASN344      0.2627
    122  OD1       18.7860    7.8480   57.2450 O.2   344  ASN344     -0.2716
    123  ND2       17.9020    8.7280   55.3710 N.am  344  ASN344     -0.0877
    124  N         21.3570    6.7780   55.9930 N.am  345  LEU345     -0.1980
    125  CA        22.6460    7.2450   55.5000 C.3   345  LEU345      0.1596
    126  C         23.8260    6.4190   56.0180 C.2   345  LEU345      0.2287
    127  O         24.8870    6.3650   55.3880 O.2   345  LEU345     -0.2864
    128  CB        22.8500    8.7060   55.8850 C.3   345  LEU345      0.0297
    129  CG        22.1520    9.7350   55.0160 C.3   345  LEU345      0.0022
    130  CD1       21.9530   10.9920   55.8280 C.3   345  LEU345      0.0001
    131  CD2       22.9780   10.0020   53.7760 C.3   345  LEU345      0.0001
    132  N         22.4990    4.0600   51.2920 N.3   349  MET349     -0.1230
    133  CA        22.9670    5.2400   50.5660 C.3   349  MET349      0.1702
    134  C         22.1270    6.5230   50.6820 C.2   349  MET349      0.2593
    135  O         22.1580    7.3610   49.7940 O.2   349  MET349     -0.2718
    136  CB        23.1370    4.8690   49.1010 C.3   349  MET349      0.0401
    137  CG        23.8720    3.5500   48.9060 C.3   349  MET349      0.0596
    138  SD        25.6360    3.7660   49.0380 S.3   349  MET349     -0.1393
    139  CE        25.9990    4.6860   47.4740 C.3   349  MET349      0.0692
    140  N         21.3990    6.6860   51.7810 N.am  350  GLY350     -0.1942
    141  CA        20.6040    7.8820   51.9700 C.3   350  GLY350      0.2014
    142  C         19.4060    7.9240   51.0550 C.2   350  GLY350      0.2638
    143  O         19.0170    6.9010   50.5030 O.2   350  GLY350     -0.2714
    144  N         18.8180    9.1080   50.8910 N.am  351  HIS351     -0.1973
    145  CA        17.6490    9.2830   50.0240 C.3   351  HIS351      0.1656
    146  C         18.0290    9.1840   48.5470 C.2   351  HIS351      0.2291
    147  O         19.1730    9.4450   48.1780 O.2   351  HIS351     -0.2864
    148  CB        17.0140   10.6510   50.2650 C.3   351  HIS351      0.0771
    149  CG        16.4290   10.8100   51.6260 C.ar  351  HIS351      0.0820
    150  ND1       15.8300   11.9780   52.0470 N.ar  351  HIS351     -0.2267
    151  CD2       16.3690    9.9560   52.6710 C.ar  351  HIS351      0.1154
    152  CE1       15.4270   11.8360   53.2950 C.ar  351  HIS351      0.1986
    153  NE2       15.7420   10.6170   53.6970 N.ar  351  HIS351     -0.2212
    154  N         16.4820   14.2590   46.3640 N.3   356  MET356     -0.1245
    155  CA        17.5450   15.1220   46.8620 C.3   356  MET356      0.1570
    156  C         17.6720   16.3250   45.9510 C.2   356  MET356      0.2261
    157  O         18.0700   17.3990   46.3940 O.2   356  MET356     -0.2867
    158  CB        18.8770   14.3640   46.9130 C.3   356  MET356      0.0387
    159  CG        19.0000   13.4210   48.1050 C.3   356  MET356      0.0595
    160  SD        18.2240   14.0360   49.6010 S.3   356  MET356     -0.1393
    161  CE        19.2040   15.5370   49.9010 C.3   356  MET356      0.0692
    162  N         18.3280   20.0980   47.2070 N.3   360  PHE360     -0.1241
    163  CA        19.5260   20.7430   46.7020 C.3   360  PHE360      0.1605
    164  C         19.2510   21.8860   45.7420 C.2   360  PHE360      0.2264
    165  O         20.0250   22.8370   45.6810 O.2   360  PHE360     -0.2867
    166  CB        20.4390   19.6890   46.0800 C.3   360  PHE360      0.0534
    167  CG        21.0060   18.7390   47.0920 C.ar  360  PHE360     -0.0203
    168  CD1       20.9380   19.0430   48.4480 C.ar  360  PHE360     -0.0042
    169  CD2       21.5880   17.5440   46.7070 C.ar  360  PHE360     -0.0042
    170  CE1       21.4380   18.1710   49.4040 C.ar  360  PHE360     -0.0003
    171  CE2       22.0950   16.6600   47.6560 C.ar  360  PHE360     -0.0003
    172  CZ        22.0180   16.9750   49.0070 C.ar  360  PHE360     -0.0000
@<TRIPOS>BOND
     1    29    28    2
     2    27    26    1
     3    27    28    1
     4    27    30    1
     5   165   164    2
     6   164   163    1
     7    31    30    1
     8    31    32    1
     9    33    32   ar
    10    28    35   am
    11   156   157    2
    12   156   155    1
    13   166   163    1
    14   166   167    1
    15    32    34   ar
    16   154   155    1
    17    38    37    2
    18    37    36    1
    19   163   162    1
    20   169   167   ar
    21   169   171   ar
    22   155   158    1
    23   158   159    1
    24    35    36    1
    25   167   168   ar
    26    22    21    2
    27   139   138    1
    28    36    39    1
    29    21    20    1
    30   171   172   ar
    31   159   160    1
    32   147   146    2
    33   168   170   ar
    34   146   145    1
    35    39    41    1
    36    39    40    1
    37   137   138    1
    38   137   136    1
    39   172   170   ar
    40    20    23    1
    41    20    19    1
    42   136   133    1
    43    24    23    1
    44    23    25    1
    45   160   161    1
    46   135   134    2
    47    73    74    1
    48   145   148    1
    49   145   144    1
    50   148   149    1
    51   143   142    2
    52   133   134    1
    53   133   132    1
    54    74    77    1
    55    74    75    1
    56    82    83    1
    57   134   140   am
    58   144   142   am
    59   142   141    1
    60    83    86    1
    61    83    84    1
    62    77    78    1
    63    86    87    1
    64   149   150   ar
    65   149   151   ar
    66    76    75    2
    67   140   141    1
    68    12    11    2
    69    78    79    1
    70     7     6    1
    71   150   152   ar
    72    89    87   ar
    73    87    88   ar
    74    58    56   ar
    75    85    84    2
    76    84    90   am
    77     8     6    1
    78   151   153   ar
    79    11    10    1
    80     6     5    1
    81    79    80    1
    82    56    57   ar
    83    56    55    1
    84   152   153   ar
    85     5     2    1
    86     4     3    2
    87    90    91    1
    88    80    81    1
    89   131   129    1
    90     3     9   am
    91     3     2    1
    92    10    13    1
    93    10     9    1
    94    54    55    1
    95    54    51    1
    96    13    14    1
    97   119   118    2
    98     2     1    1
    99    92    91    1
   100    92    93    2
   101    91    94    1
   102   129   130    1
   103   129   128    1
   104    96    95    2
   105    14    16   ar
   106    14    15   ar
   107   123   121   am
   108   118   117    1
   109   118   124   am
   110    51    50    1
   111    51    52    1
   112   127   126    2
   113    16    18   ar
   114   120   117    1
   115   120   121    1
   116   125   128    1
   117   125   124    1
   118   125   126    1
   119    49    47   ar
   120    94    95    1
   121    53    52    2
   122   117   116    1
   123    95    97   am
   124   121   122    2
   125    46    47    1
   126    46    43    1
   127    52    59   am
   128    47    48   ar
   129    15    17   ar
   130    18    17   ar
   131    42    43    1
   132    43    44    1
   133    59    60    1
   134    60    63    1
   135    60    61    1
   136    44    45    2
   137    63    64    1
   138    63    65    1
   139   115   113    1
   140    61    66   am
   141    61    62    2
   142   111   110    2
   143    66    67    1
   144    71    70    1
   145   112   113    1
   146   112   109    1
   147   113   114    1
   148   110   109    1
   149    67    70    1
   150    67    68    1
   151   106   104   ar
   152   106   107   ar
   153   109   108    1
   154    70    72    1
   155   104   103   ar
   156   107   105   ar
   157   103   105   ar
   158   103   102    1
   159    68    69    2
   160   102    99    1
   161    99    98    1
   162    99   100    1
   163   101   100    2
