@<TRIPOS>MOLECULE
tmp/2h5mA00.pdb
 120 116 0 0 0
SMALL
GASTEIGER

@<TRIPOS>ATOM
      1  N         -2.6290    0.5780   -6.2110 N.3    39  ASP39      -0.1225
      2  CA        -2.7850   -0.4570   -7.2270 C.3    39  ASP39       0.1805
      3  C         -1.4930   -1.2430   -7.4370 C.2    39  ASP39       0.2598
      4  O         -1.5260   -2.4530   -7.6610 O.2    39  ASP39      -0.2718
      5  CB        -3.2540    0.1640   -8.5460 C.3    39  ASP39       0.1424
      6  CG        -3.2070   -0.8130   -9.7080 C.2    39  ASP39       0.3668
      7  OD1       -4.0880   -1.7020   -9.7860 O.co2  39  ASP39      -0.2456
      8  OD2       -2.3020   -0.6860  -10.5600 O.co2  39  ASP39      -0.2456
      9  N         -0.3560   -0.5720   -7.3420 N.am   40  HIS40      -0.1961
     10  CA         0.9240   -1.2350   -7.5450 C.3    40  HIS40       0.1787
     11  C          1.6730   -1.4280   -6.2280 C.2    40  HIS40       0.2621
     12  O          1.8680   -0.4890   -5.4550 O.2    40  HIS40      -0.2715
     13  CB         1.7790   -0.4510   -8.5580 C.3    40  HIS40       0.0785
     14  CG         3.2510   -0.7740   -8.5260 C.ar   40  HIS40       0.0821
     15  ND1        3.7920   -1.9070   -9.0940 N.ar   40  HIS40      -0.2267
     16  CD2        4.2940   -0.0950   -7.9900 C.ar   40  HIS40       0.1154
     17  CE1        5.0990   -1.9110   -8.9060 C.ar   40  HIS40       0.1986
     18  NE2        5.4300   -0.8210   -8.2390 N.ar   40  HIS40      -0.2212
     19  N          2.0710   -2.6660   -5.9800 N.am   41  THR41      -0.1937
     20  CA         2.8210   -3.0290   -4.7860 C.3    41  THR41       0.2028
     21  C          3.7300   -4.2070   -5.1060 C.2    41  THR41       0.2643
     22  O          3.2490   -5.3150   -5.3360 O.2    41  THR41      -0.2714
     23  CB         1.8910   -3.4220   -3.6200 C.3    41  THR41       0.1808
     24  OG1        0.6960   -2.6320   -3.6570 O.3    41  THR41      -0.2208
     25  CG2        2.5850   -3.2250   -2.2800 C.3    41  THR41       0.0379
     26  N          5.0330   -3.9700   -5.1450 N.am   42  GLY42      -0.1939
     27  CA         5.9550   -5.0420   -5.4540 C.3    42  GLY42       0.2014
     28  C          7.0920   -5.1350   -4.4670 C.2    42  GLY42       0.2638
     29  O          7.6940   -4.1260   -4.0970 O.2    42  GLY42      -0.2714
     30  N          7.3650   -6.3500   -4.0230 N.am   43  VAL43      -0.1977
     31  CA         8.4390   -6.6150   -3.0780 C.3    43  VAL43       0.1596
     32  C          9.3190   -7.7270   -3.6300 C.2    43  VAL43       0.2287
     33  O          8.8320   -8.6160   -4.3270 O.2    43  VAL43      -0.2864
     34  CB         7.8910   -7.0350   -1.6900 C.3    43  VAL43       0.0276
     35  CG1        9.0150   -7.1810   -0.6710 C.3    43  VAL43       0.0022
     36  CG2        6.8490   -6.0420   -1.1950 C.3    43  VAL43       0.0022
     37  N         10.9690  -11.0510   -3.7910 N.3    45  ASP45      -0.1239
     38  CA        10.7430  -12.3600   -3.1870 C.3    45  ASP45       0.1674
     39  C         12.0660  -12.9230   -2.6890 C.2    45  ASP45       0.2266
     40  O         12.1410  -13.5490   -1.6290 O.2    45  ASP45      -0.2867
     41  CB        10.1100  -13.3220   -4.1990 C.3    45  ASP45       0.1410
     42  CG        10.0810  -14.7550   -3.6990 C.2    45  ASP45       0.3668
     43  OD1        9.2710  -15.0590   -2.7970 O.co2  45  ASP45      -0.2456
     44  OD2       10.8630  -15.5850   -4.2070 O.co2  45  ASP45      -0.2456
     45  N         10.3640  -10.1210    4.2990 N.3    50  GLN50      -0.1231
     46  CA         9.2040   -9.6180    3.5710 C.3    50  GLN50       0.1698
     47  C          8.2950   -8.7770    4.4680 C.2    50  GLN50       0.2592
     48  O          7.2430   -8.3010    4.0310 O.2    50  GLN50      -0.2718
     49  CB         8.4120  -10.7800    2.9680 C.3    50  GLN50       0.0381
     50  CG         9.2680  -11.8250    2.2670 C.3    50  GLN50       0.0905
     51  CD        10.1700  -11.2370    1.1970 C.2    50  GLN50       0.2608
     52  OE1       11.3210  -10.8900    1.4600 O.2    50  GLN50      -0.2717
     53  NE2        9.6590  -11.1320   -0.0170 N.am   50  GLN50      -0.0878
     54  N          8.7040   -8.5950    5.7190 N.am   51  GLY51      -0.1957
     55  CA         7.9280   -7.8070    6.6580 C.3    51  GLY51       0.1869
     56  C          7.9350   -6.3280    6.3160 C.2    51  GLY51       0.2309
     57  O          7.1720   -5.5500    6.8900 O.2    51  GLY51      -0.2863
     58  N          6.8050   -4.9350    3.7750 N.3    53  GLY53      -0.1210
     59  CA         5.5080   -4.5720    3.2270 C.3    53  GLY53       0.1956
     60  C          4.5440   -4.0940    4.2960 C.2    53  GLY53       0.2611
     61  O          3.7060   -3.2250    4.0470 O.2    53  GLY53      -0.2717
     62  N          4.6760   -4.6520    5.4940 N.am   54  LYS54      -0.1979
     63  CA         3.8170   -4.2820    6.6090 C.3    54  LYS54       0.1596
     64  C          4.0830   -2.8400    7.0190 C.2    54  LYS54       0.2287
     65  O          3.1550   -2.0700    7.2610 O.2    54  LYS54      -0.2864
     66  CB         4.0570   -5.2140    7.8020 C.3    54  LYS54       0.0298
     67  CG         3.6210   -6.6540    7.5700 C.3    54  LYS54       0.0038
     68  CD         2.1180   -6.7590    7.3660 C.3    54  LYS54       0.0206
     69  CE         1.5620   -8.0410    7.9550 C.3    54  LYS54       0.1093
     70  NZ         1.1970   -7.8840    9.3880 N.3    54  LYS54      -0.1314
     71  N         -4.8890   -3.0840   -5.7940 N.3    75  CYS75      -0.1221
     72  CA        -3.8610   -4.0990   -5.6460 C.3    75  CYS75       0.1808
     73  C         -4.3800   -5.2620   -4.8140 C.2    75  CYS75       0.2602
     74  O         -4.6880   -5.0950   -3.6330 O.2    75  CYS75      -0.2717
     75  CB        -2.6360   -3.4830   -4.9670 C.3    75  CYS75       0.0970
     76  SG        -1.3340   -4.6590   -4.5450 S.3    75  CYS75      -0.0800
     77  N         -4.4690   -6.4350   -5.4290 N.am   76  SER76      -0.1938
     78  CA        -4.9480   -7.6310   -4.7460 C.3    76  SER76       0.2055
     79  C         -4.0690   -7.9650   -3.5390 C.2    76  SER76       0.2643
     80  O         -4.5340   -8.5630   -2.5660 O.2    76  SER76      -0.2714
     81  CB        -4.9690   -8.8090   -5.7220 C.3    76  SER76       0.2130
     82  OG        -5.5410   -8.4260   -6.9640 O.3    76  SER76      -0.2179
     83  N         -2.8050   -7.5670   -3.6080 N.am   77  PHE77      -0.1973
     84  CA        -1.8610   -7.8220   -2.5320 C.3    77  PHE77       0.1639
     85  C         -2.1330   -6.9060   -1.3390 C.2    77  PHE77       0.2290
     86  O         -2.4210   -7.3760   -0.2400 O.2    77  PHE77      -0.2864
     87  CB        -0.4260   -7.6340   -3.0360 C.3    77  PHE77       0.0560
     88  CG         0.6230   -7.8730   -1.9890 C.ar   77  PHE77      -0.0200
     89  CD1        0.8460   -9.1490   -1.4940 C.ar   77  PHE77      -0.0042
     90  CD2        1.3870   -6.8260   -1.5010 C.ar   77  PHE77      -0.0042
     91  CE1        1.8100   -9.3730   -0.5320 C.ar   77  PHE77      -0.0003
     92  CE2        2.3520   -7.0450   -0.5400 C.ar   77  PHE77      -0.0003
     93  CZ         2.5610   -8.3080   -0.0480 C.ar   77  PHE77      -0.0000
     94  N         -5.5120   -7.4340    0.4050 N.3    80  HIS80      -0.1226
     95  CA        -5.5410   -8.5740    1.3140 C.3    80  HIS80       0.1752
     96  C         -4.8390   -8.2460    2.6270 C.2    80  HIS80       0.2595
     97  O         -5.1990   -8.7660    3.6840 O.2    80  HIS80      -0.2718
     98  CB        -4.8910   -9.7940    0.6620 C.3    80  HIS80       0.0759
     99  CG        -5.0080  -11.0370    1.4880 C.ar   80  HIS80       0.0818
    100  ND1       -6.2130  -11.5180    1.9470 N.ar   80  HIS80      -0.2268
    101  CD2       -4.0620  -11.8950    1.9360 C.ar   80  HIS80       0.1154
    102  CE1       -6.0070  -12.6190    2.6450 C.ar   80  HIS80       0.1986
    103  NE2       -4.7100  -12.8680    2.6520 N.ar   80  HIS80      -0.2212
    104  N         -3.8330   -7.3870    2.5550 N.am   81  MET81      -0.1979
    105  CA        -3.0920   -6.9820    3.7390 C.3    81  MET81       0.1605
    106  C         -3.9950   -6.1610    4.6520 C.2    81  MET81       0.2287
    107  O         -3.9350   -6.2740    5.8800 O.2    81  MET81      -0.2864
    108  CB        -1.8530   -6.1760    3.3470 C.3    81  MET81       0.0413
    109  CG        -0.8470   -6.9690    2.5270 C.3    81  MET81       0.0598
    110  SD         0.7380   -6.1280    2.3640 S.3    81  MET81      -0.1393
    111  CE         1.1230   -5.8140    4.0820 C.3    81  MET81       0.0692
    112  N         -6.4610   -8.3990    6.4010 N.3    84  LYS84      -0.1245
    113  CA        -5.8250   -9.0780    7.5210 C.3    84  LYS84       0.1561
    114  C         -5.7560   -8.1720    8.7410 C.2    84  LYS84       0.2260
    115  O         -6.1430   -8.5640    9.8420 O.2    84  LYS84      -0.2867
    116  CB        -4.4100   -9.5120    7.1430 C.3    84  LYS84       0.0271
    117  CG        -4.3090  -10.9450    6.6590 C.3    84  LYS84       0.0035
    118  CD        -2.9690  -11.5560    7.0390 C.3    84  LYS84       0.0206
    119  CE        -2.9270  -11.9240    8.5160 C.3    84  LYS84       0.1093
    120  NZ        -1.5480  -12.2270    8.9770 N.3    84  LYS84      -0.1314
@<TRIPOS>BOND
     1     8     6   ar
     2     7     6   ar
     3     6     5    1
     4    15    17   ar
     5    15    14   ar
     6    17    18   ar
     7    13    14    1
     8    13    10    1
     9     5     2    1
    10    14    16   ar
    11    18    16   ar
    12     4     3    2
    13    10     9    1
    14    10    11    1
    15     3     9   am
    16     3     2    1
    17     2     1    1
    18    82    81    1
    19    11    19   am
    20    11    12    2
    21    19    20    1
    22    71    72    1
    23    81    78    1
    24    72    75    1
    25    72    73    1
    26    27    26    1
    27    27    28    1
    28    77    73   am
    29    77    78    1
    30    22    21    2
    31    26    21   am
    32    21    20    1
    33    75    76    1
    34    73    74    2
    35    20    23    1
    36    78    79    1
    37    28    29    2
    38    28    30   am
    39    33    32    2
    40    44    42   ar
    41    41    42    1
    42    41    38    1
    43    30    31    1
    44    37    38    1
    45    42    43   ar
    46    24    23    1
    47    32    31    1
    48    23    25    1
    49    83    79   am
    50    83    84    1
    51    79    80    2
    52    38    39    1
    53    31    34    1
    54    87    84    1
    55    87    88    1
    56    39    40    2
    57    84    85    1
    58    88    90   ar
    59    88    89   ar
    60    34    36    1
    61    34    35    1
    62    90    92   ar
    63    89    91   ar
    64    85    86    2
    65    92    93   ar
    66    91    93   ar
    67    53    51   am
    68    94    95    1
    69    98    95    1
    70    98    99    1
    71    51    52    2
    72    51    50    1
    73    95    96    1
    74    99   101   ar
    75    99   100   ar
    76   101   103   ar
    77   100   102   ar
    78    50    49    1
    79   110   109    1
    80   110   111    1
    81   109   108    1
    82   104    96   am
    83   104   105    1
    84    96    97    2
    85   102   103   ar
    86    49    46    1
    87    59    58    1
    88    59    60    1
    89   108   105    1
    90    46    45    1
    91    46    47    1
    92   105   106    1
    93    48    47    2
    94    61    60    2
    95    60    62   am
    96    47    54   am
    97   106   107    2
    98    62    63    1
    99    54    55    1
   100    56    55    1
   101    56    57    2
   102   112   113    1
   103    63    64    1
   104    63    66    1
   105   117   118    1
   106   117   116    1
   107    64    65    2
   108   118   119    1
   109   116   113    1
   110    68    67    1
   111    68    69    1
   112   113   114    1
   113    67    66    1
   114    69    70    1
   115   119   120    1
   116   114   115    2
