@<TRIPOS>MOLECULE
tmp/2h5uA00.pdb
 95 91 0 0 0
SMALL
GASTEIGER

@<TRIPOS>ATOM
      1  N         25.8890   52.6190   34.5810 N.3    14  ALA14      -0.1245
      2  CA        24.7990   52.1800   35.4470 C.3    14  ALA14       0.1562
      3  C         24.1650   53.3910   36.1240 C.2    14  ALA14       0.2260
      4  O         24.8650   54.2350   36.6810 O.2    14  ALA14      -0.2867
      5  CB        25.3100   51.2000   36.4890 C.3    14  ALA14       0.0290
      6  N         16.0790   51.4180   40.5510 N.3    20  PHE20      -0.1227
      7  CA        16.3000   50.2250   39.7360 C.3    20  PHE20       0.1736
      8  C         17.5300   50.4540   38.8620 C.2    20  PHE20       0.2596
      9  O         17.5030   51.2690   37.9350 O.2    20  PHE20      -0.2718
     10  CB        15.0500   49.9360   38.8900 C.3    20  PHE20       0.0547
     11  CG        15.1600   48.7200   38.0000 C.ar   20  PHE20      -0.0202
     12  CD1       15.8060   48.7920   36.7670 C.ar   20  PHE20      -0.0042
     13  CD2       14.5820   47.5140   38.3790 C.ar   20  PHE20      -0.0042
     14  CE1       15.8990   47.6730   35.9380 C.ar   20  PHE20      -0.0003
     15  CE2       14.6660   46.3900   37.5560 C.ar   20  PHE20      -0.0003
     16  CZ        15.3220   46.4740   36.3320 C.ar   20  PHE20      -0.0000
     17  N         18.6110   49.7380   39.1590 N.am   21  SER21      -0.1938
     18  CA        19.8510   49.9070   38.4110 C.3    21  SER21       0.2055
     19  C         19.7720   49.2890   37.0200 C.2    21  SER21       0.2643
     20  O         19.3600   48.1390   36.8590 O.2    21  SER21      -0.2714
     21  CB        21.0450   49.3350   39.1730 C.3    21  SER21       0.2130
     22  OG        22.2540   49.7150   38.5360 O.3    21  SER21      -0.2179
     23  N         20.1500   50.0760   36.0160 N.am   22  ARG22      -0.1963
     24  CA        20.2820   49.5790   34.6510 C.3    22  ARG22       0.1729
     25  C         21.3270   50.3780   33.8820 C.2    22  ARG22       0.2616
     26  O         21.6330   51.5180   34.2380 O.2    22  ARG22      -0.2715
     27  CB        18.9220   49.5640   33.9240 C.3    22  ARG22       0.0348
     28  CG        18.3140   50.9230   33.5730 C.3    22  ARG22       0.0492
     29  CD        18.5980   51.2740   32.1170 C.3    22  ARG22       0.2205
     30  NE        17.3750   51.5500   31.3820 N.pl3  22  ARG22      -0.0865
     31  CZ        17.2840   51.6580   30.0590 C.cat  22  ARG22       0.5346
     32  NH1       18.3520   51.5270   29.2780 N.pl3  22  ARG22       0.1354
     33  NH2       16.1060   51.9080   29.5160 N.pl3  22  ARG22       0.1354
     34  N         21.8700   49.7670   32.8340 N.am   23  GLN23      -0.1977
     35  CA        22.8020   50.4420   31.9380 C.3    23  GLN23       0.1601
     36  C         22.0660   51.4270   31.0440 C.2    23  GLN23       0.2287
     37  O         21.0390   51.0930   30.4510 O.2    23  GLN23      -0.2864
     38  CB        23.5710   49.4280   31.0900 C.3    23  GLN23       0.0394
     39  CG        24.6330   48.6500   31.8580 C.3    23  GLN23       0.0908
     40  CD        25.7980   49.5160   32.3070 C.2    23  GLN23       0.2608
     41  OE1       26.3920   50.2460   31.5120 O.2    23  GLN23      -0.2717
     42  NE2       26.1350   49.4330   33.5900 N.am   23  GLN23      -0.0878
     43  N         28.6860   50.0260   24.1730 N.3    54  ASN54      -0.1240
     44  CA        27.5740   49.0790   24.1610 C.3    54  ASN54       0.1653
     45  C         26.7930   49.1380   22.8500 C.2    54  ASN54       0.2266
     46  O         26.1000   50.1210   22.5740 O.2    54  ASN54      -0.2867
     47  CB        26.6470   49.3680   25.3470 C.3    54  ASN54       0.1155
     48  CG        25.6490   48.2580   25.6100 C.2    54  ASN54       0.2627
     49  OD1       25.0190   47.7330   24.6910 O.2    54  ASN54      -0.2716
     50  ND2       25.4880   47.9110   26.8840 N.am   54  ASN54      -0.0877
     51  N         24.1760   47.3370   21.8950 N.3    56  THR56      -0.1203
     52  CA        22.7280   47.2480   22.1370 C.3    56  THR56       0.1994
     53  C         22.0700   48.6300   22.2600 C.2    56  THR56       0.2617
     54  O         20.9370   48.8270   21.8110 O.2    56  THR56      -0.2717
     55  CB        22.4130   46.3920   23.3910 C.3    56  THR56       0.1784
     56  OG1       23.0210   45.1030   23.2510 O.3    56  THR56      -0.2211
     57  CG2       20.9080   46.2140   23.5870 C.3    56  THR56       0.0376
     58  N         22.7840   49.5780   22.8600 N.am   57  MET57      -0.1979
     59  CA        22.2920   50.9500   22.9730 C.3    57  MET57       0.1605
     60  C         22.9680   51.8590   21.9410 C.2    57  MET57       0.2287
     61  O         22.8350   53.0890   21.9880 O.2    57  MET57      -0.2864
     62  CB        22.4650   51.4730   24.4040 C.3    57  MET57       0.0413
     63  CG        21.6880   50.6540   25.4370 C.3    57  MET57       0.0598
     64  SD        21.6710   51.3320   27.1070 S.3    57  MET57      -0.1393
     65  CE        23.4090   51.2700   27.5430 C.3    57  MET57       0.0692
     66  N         12.7150   50.1460   32.4030 N.3   153  HIS153     -0.1226
     67  CA        13.6550   49.2150   33.0260 C.3   153  HIS153      0.1752
     68  C         14.3120   48.2990   31.9990 C.2   153  HIS153      0.2597
     69  O         15.3830   47.7390   32.2450 O.2   153  HIS153     -0.2718
     70  CB        12.9770   48.4140   34.1410 C.3   153  HIS153      0.0759
     71  CG        12.6250   49.2370   35.3440 C.ar  153  HIS153      0.0818
     72  ND1       11.8370   48.7600   36.3700 N.ar  153  HIS153     -0.2268
     73  CD2       12.9430   50.5110   35.6780 C.ar  153  HIS153      0.1154
     74  CE1       11.6960   49.6980   37.2890 C.ar  153  HIS153      0.1986
     75  NE2       12.3560   50.7720   36.8930 N.ar  153  HIS153     -0.2212
     76  N         13.6590   48.1670   30.8470 N.am  154  THR154     -0.1939
     77  CA        14.1990   47.4340   29.7070 C.3   154  THR154      0.2028
     78  C         14.6040   48.4290   28.6240 C.2   154  THR154      0.2642
     79  O         13.8500   49.3560   28.3110 O.2   154  THR154     -0.2714
     80  CB        13.1630   46.4400   29.1440 C.3   154  THR154      0.1808
     81  OG1       12.7120   45.5840   30.1970 O.3   154  THR154     -0.2208
     82  CG2       13.7610   45.5880   28.0390 C.3   154  THR154      0.0379
     83  N         15.7990   48.2290   28.0680 N.am  155  ALA155     -0.1977
     84  CA        16.3510   49.0990   27.0290 C.3   155  ALA155      0.1597
     85  C         15.4890   49.1400   25.7650 C.2   155  ALA155      0.2287
     86  O         14.7620   48.1890   25.4630 O.2   155  ALA155     -0.2864
     87  CB        17.7750   48.6830   26.6880 C.3   155  ALA155      0.0319
     88  N         15.4780   46.2460   23.4990 N.3   158  LEU158     -0.1245
     89  CA        15.2440   44.9600   24.1620 C.3   158  LEU158      0.1561
     90  C         13.7850   44.6670   24.5410 C.2   158  LEU158      0.2260
     91  O         13.4060   43.5060   24.7220 O.2   158  LEU158     -0.2867
     92  CB        16.1750   44.7940   25.3730 C.3   158  LEU158      0.0270
     93  CG        17.6850   44.7650   25.0920 C.3   158  LEU158      0.0019
     94  CD1       18.4680   44.5730   26.3810 C.3   158  LEU158      0.0001
     95  CD2       18.0640   43.6900   24.0700 C.3   158  LEU158      0.0001
@<TRIPOS>BOND
     1    54    53    2
     2    51    52    1
     3    60    61    2
     4    60    59    1
     5    52    53    1
     6    52    55    1
     7    53    58   am
     8    46    45    2
     9    45    44    1
    10    58    59    1
    11    59    62    1
    12    56    55    1
    13    55    57    1
    14    88    89    1
    15    95    93    1
    16    44    43    1
    17    44    47    1
    18    89    90    1
    19    89    92    1
    20    62    63    1
    21    90    91    2
    22    49    48    2
    23    93    92    1
    24    93    94    1
    25    47    48    1
    26    63    64    1
    27    86    85    2
    28    48    50   am
    29    85    84    1
    30    87    84    1
    31    84    83    1
    32    64    65    1
    33    82    80    1
    34    83    78   am
    35    79    78    2
    36    78    77    1
    37    80    77    1
    38    80    81    1
    39    32    31    1
    40    33    31    1
    41    77    76    1
    42    31    30    2
    43    37    36    2
    44    76    68   am
    45    36    35    1
    46    38    39    1
    47    38    35    1
    48    30    29    1
    49    41    40    2
    50    39    40    1
    51    35    34    1
    52    68    69    2
    53    68    67    1
    54    29    28    1
    55    40    42   am
    56    66    67    1
    57    34    25   am
    58    67    70    1
    59    28    27    1
    60    25    26    2
    61    25    24    1
    62    27    24    1
    63    70    71    1
    64     1     2    1
    65    24    23    1
    66    71    73   ar
    67    71    72   ar
    68     2     3    1
    69     2     5    1
    70    73    75   ar
    71    14    16   ar
    72    14    12   ar
    73    23    19   am
    74     3     4    2
    75    16    15   ar
    76    72    74   ar
    77    12    11   ar
    78    20    19    2
    79    75    74   ar
    80    19    18    1
    81    15    13   ar
    82     9     8    2
    83    11    13   ar
    84    11    10    1
    85    18    17    1
    86    18    21    1
    87    22    21    1
    88     8    17   am
    89     8     7    1
    90    10     7    1
    91     7     6    1
