@<TRIPOS>MOLECULE
tmp/2h5zB00.pdb
 165 162 0 0 0
SMALL
GASTEIGER

@<TRIPOS>ATOM
      1  N         -6.2820   11.2370   31.7770 N.3    44  ASN44      -0.1240
      2  CA        -5.6630    9.9660   31.4260 C.3    44  ASN44       0.1653
      3  C         -5.5590    9.0740   32.6450 C.2    44  ASN44       0.2266
      4  O         -5.8050    9.5220   33.7380 O.2    44  ASN44      -0.2867
      5  CB        -4.3050   10.1860   30.7270 C.3    44  ASN44       0.1155
      6  CG        -4.4560   11.0300   29.4840 C.2    44  ASN44       0.2627
      7  OD1       -5.2340   10.6990   28.6250 O.2    44  ASN44      -0.2716
      8  ND2       -3.8010   12.1680   29.4390 N.am   44  ASN44      -0.0877
      9  N         -2.9780    8.0710   34.0310 N.3    46  ASN46      -0.1240
     10  CA        -1.9090    8.5710   34.8920 C.3    46  ASN46       0.1653
     11  C         -2.2260    9.9570   35.4050 C.2    46  ASN46       0.2266
     12  O         -1.3790   10.6070   36.0200 O.2    46  ASN46      -0.2867
     13  CB        -0.6210    8.5820   34.0980 C.3    46  ASN46       0.1155
     14  CG        -0.5870    9.6810   33.0470 C.2    46  ASN46       0.2627
     15  OD1       -1.6300   10.1380   32.5640 O.2    46  ASN46      -0.2716
     16  ND2        0.6310   10.1450   32.7210 N.am   46  ASN46      -0.0877
     17  N         -4.6970   16.1180   28.3320 N.3    50  ASP50      -0.1239
     18  CA        -4.1380   16.4860   27.0470 C.3    50  ASP50       0.1674
     19  C         -4.7990   17.7430   26.5180 C.2    50  ASP50       0.2266
     20  O         -5.9840   17.9600   26.7420 O.2    50  ASP50      -0.2867
     21  CB        -4.3850   15.3470   26.1260 C.3    50  ASP50       0.1410
     22  CG        -3.7280   14.1040   26.6310 C.2    50  ASP50       0.3668
     23  OD1       -2.5330   14.2050   26.9990 O.co2  50  ASP50      -0.2456
     24  OD2       -4.3790   13.0660   26.6140 O.co2  50  ASP50      -0.2456
     25  N         -4.0480   19.1710   19.2180 N.3    54  PHE54      -0.1227
     26  CA        -3.2040   17.9800   19.1520 C.3    54  PHE54       0.1736
     27  C         -3.1060   17.2180   20.4340 C.2    54  PHE54       0.2595
     28  O         -2.2620   16.3350   20.5380 O.2    54  PHE54      -0.2718
     29  CB        -1.8020   18.3700   18.7260 C.3    54  PHE54       0.0547
     30  CG        -1.7450   18.9640   17.3580 C.ar   54  PHE54      -0.0202
     31  CD1       -2.2880   18.2630   16.2620 C.ar   54  PHE54      -0.0042
     32  CD2       -1.1400   20.2320   17.1530 C.ar   54  PHE54      -0.0042
     33  CE1       -2.1860   18.7930   14.9550 C.ar   54  PHE54      -0.0003
     34  CE2       -1.0510   20.7850   15.8670 C.ar   54  PHE54      -0.0003
     35  CZ        -1.5930   20.0600   14.7600 C.ar   54  PHE54      -0.0000
     36  N         -3.9270   17.5690   21.4210 N.am   55  GLN55      -0.1965
     37  CA        -3.9820   16.8050   22.6900 C.3    55  GLN55       0.1733
     38  C         -2.5690   16.5330   23.2060 C.2    55  GLN55       0.2616
     39  O         -2.0840   15.3780   23.2930 O.2    55  GLN55      -0.2715
     40  CB        -4.7920   15.5340   22.5080 C.3    55  GLN55       0.0408
     41  CG        -6.2520   15.8430   22.2990 C.3    55  GLN55       0.0908
     42  CD        -6.8820   16.4590   23.5840 C.2    55  GLN55       0.2608
     43  OE1       -7.1910   15.7280   24.4920 O.2    55  GLN55      -0.2717
     44  NE2       -7.0170   17.7910   23.6610 N.am   55  GLN55      -0.0878
     45  N         -1.9250   17.6420   23.5540 N.am   56  ILE56      -0.1963
     46  CA        -0.5480   17.6470   24.0030 C.3    56  ILE56       0.1727
     47  C         -0.6190   17.4650   25.4940 C.2    56  ILE56       0.2616
     48  O         -1.4170   18.1040   26.1740 O.2    56  ILE56      -0.2715
     49  CB         0.1450   18.9310   23.6140 C.3    56  ILE56       0.0290
     50  CG1        0.3630   18.9010   22.0910 C.3    56  ILE56       0.0022
     51  CG2        1.4370   19.1670   24.4350 C.3    56  ILE56       0.0023
     52  CD1        0.7010   20.2530   21.5130 C.3    56  ILE56       0.0001
     53  N          0.2130   16.5490   25.9770 N.am   57  ASN57      -0.1972
     54  CA         0.1160   16.0730   27.3200 C.3    57  ASN57       0.1688
     55  C          0.6670   17.0250   28.3570 C.2    57  ASN57       0.2292
     56  O          1.7860   17.5560   28.2130 O.2    57  ASN57      -0.2864
     57  CB         0.8080   14.7370   27.4500 C.3    57  ASN57       0.1181
     58  CG         0.5500   14.1170   28.7840 C.2    57  ASN57       0.2629
     59  OD1        1.3920   14.2090   29.6750 O.2    57  ASN57      -0.2716
     60  ND2       -0.6690   13.5420   28.9690 N.am   57  ASN57      -0.0877
     61  N          4.4070   15.9110   30.2590 N.3    60  TYR60      -0.1227
     62  CA         5.6460   15.9520   29.5030 C.3    60  TYR60       0.1736
     63  C          5.8680   17.2410   28.7310 C.2    60  TYR60       0.2595
     64  O          7.0040   17.6290   28.5290 O.2    60  TYR60      -0.2718
     65  CB         5.7190   14.7540   28.5590 C.3    60  TYR60       0.0548
     66  CG         5.8690   13.4600   29.2870 C.ar   60  TYR60      -0.0200
     67  CD1        7.0840   13.1290   29.9050 C.ar   60  TYR60      -0.0009
     68  CD2        4.8010   12.5680   29.3850 C.ar   60  TYR60      -0.0009
     69  CE1        7.2410   11.9220   30.6040 C.ar   60  TYR60       0.0417
     70  CE2        4.9340   11.3700   30.0820 C.ar   60  TYR60       0.0417
     71  CZ         6.1510   11.0500   30.6850 C.ar   60  TYR60       0.1957
     72  OH         6.2950    9.8550   31.3560 O.3    60  TYR60      -0.2866
     73  N          4.8020   17.8840   28.2680 N.am   61  TRP61      -0.1976
     74  CA         4.9710   18.9100   27.2580 C.3    61  TRP61       0.1640
     75  C          4.6020   20.3350   27.6310 C.2    61  TRP61       0.2290
     76  O          5.2360   21.2760   27.1680 O.2    61  TRP61      -0.2864
     77  CB         4.2460   18.4930   25.9780 C.3    61  TRP61       0.0576
     78  CG         4.6900   17.1270   25.5190 C.ar   61  TRP61       0.0006
     79  CD1        3.9820   15.9530   25.5820 C.ar   61  TRP61       0.0946
     80  CD2        5.9500   16.8050   24.9560 C.ar   61  TRP61       0.0152
     81  NE1        4.7330   14.9080   25.0700 N.ar   61  TRP61      -0.2442
     82  CE2        5.9550   15.4030   24.6940 C.ar   61  TRP61       0.0810
     83  CE3        7.0780   17.5590   24.6360 C.ar   61  TRP61       0.0012
     84  CZ2        7.0370   14.7470   24.1250 C.ar   61  TRP61       0.0191
     85  CZ3        8.1650   16.8980   24.0680 C.ar   61  TRP61       0.0001
     86  CH2        8.1260   15.4990   23.8080 C.ar   61  TRP61       0.0015
     87  N          7.2090   18.1060   33.0980 N.3    71  TYR71      -0.1241
     88  CA         8.4520   18.3900   32.3930 C.3    71  TYR71       0.1605
     89  C          8.3210   19.6000   31.4710 C.2    71  TYR71       0.2264
     90  O          9.3190   20.2140   31.0870 O.2    71  TYR71      -0.2867
     91  CB         8.9220   17.1750   31.6080 C.3    71  TYR71       0.0534
     92  CG         9.3690   16.0500   32.5260 C.ar   71  TYR71      -0.0201
     93  CD1       10.6960   15.9960   33.0210 C.ar   71  TYR71      -0.0009
     94  CD2        8.4760   15.0490   32.9150 C.ar   71  TYR71      -0.0009
     95  CE1       11.1180   14.9360   33.8620 C.ar   71  TYR71       0.0417
     96  CE2        8.8790   14.0050   33.7640 C.ar   71  TYR71       0.0417
     97  CZ        10.2000   13.9440   34.2410 C.ar   71  TYR71       0.1957
     98  OH        10.5730   12.8990   35.0970 O.3    71  TYR71      -0.2866
     99  N          8.1050   20.2900   28.3760 N.3    73  GLU73      -0.1245
    100  CA         9.1760   20.2840   27.3740 C.3    73  GLU73       0.1567
    101  C          8.9000   21.2520   26.2280 C.2    73  GLU73       0.2260
    102  O          9.8140   21.6720   25.5090 O.2    73  GLU73      -0.2867
    103  CB         9.4560   18.8590   26.8670 C.3    73  GLU73       0.0388
    104  CG        10.6050   18.6910   25.7950 C.3    73  GLU73       0.1160
    105  CD        12.0290   19.1540   26.2290 C.2    73  GLU73       0.3649
    106  OE1       12.2590   19.4170   27.4320 O.co2  73  GLU73      -0.2457
    107  OE2       12.9210   19.2450   25.3430 O.co2  73  GLU73      -0.2457
    108  N          7.4020   17.7140   19.7990 N.3    96  ILE96      -0.1245
    109  CA         7.1190   16.3200   20.1680 C.3    96  ILE96       0.1561
    110  C          7.4410   15.3460   19.0580 C.2    96  ILE96       0.2260
    111  O          8.1020   14.3080   19.2930 O.2    96  ILE96      -0.2867
    112  CB         5.6630   16.1580   20.5200 C.3    96  ILE96       0.0252
    113  CG1        5.3590   17.0810   21.7040 C.3    96  ILE96       0.0019
    114  CG2        5.3210   14.6680   20.7440 C.3    96  ILE96       0.0019
    115  CD1        3.8830   17.3600   21.9170 C.3    96  ILE96       0.0001
    116  N         11.1170   14.9400   18.9040 N.3    99  GLN99      -0.1231
    117  CA        11.7590   14.2540   19.9980 C.3    99  GLN99       0.1698
    118  C         11.2730   12.8390   20.2020 C.2    99  GLN99       0.2592
    119  O         12.0600   11.9400   20.5260 O.2    99  GLN99      -0.2718
    120  CB        11.5310   15.0300   21.2700 C.3    99  GLN99       0.0381
    121  CG        12.2970   16.3290   21.2480 C.3    99  GLN99       0.0905
    122  CD        12.2700   17.0110   22.5810 C.2    99  GLN99       0.2608
    123  OE1       11.8670   16.4200   23.6050 O.2    99  GLN99      -0.2717
    124  NE2       12.6870   18.2710   22.5900 N.am   99  GLN99      -0.0878
    125  N          9.9780   12.6360   20.0360 N.am  100  GLN100     -0.1979
    126  CA         9.4250   11.3490   20.3250 C.3   100  GLN100      0.1601
    127  C          8.9020   10.7060   19.0680 C.2   100  GLN100      0.2287
    128  O          8.8220    9.4690   18.9830 O.2   100  GLN100     -0.2864
    129  CB         8.3290   11.4730   21.3620 C.3   100  GLN100      0.0394
    130  CG         7.8260   10.1530   21.8800 C.3   100  GLN100      0.0908
    131  CD         6.7710   10.3520   22.9440 C.2   100  GLN100      0.2608
    132  OE1        6.6240   11.4660   23.4920 O.2   100  GLN100     -0.2717
    133  NE2        6.0200    9.2780   23.2470 N.am  100  GLN100     -0.0878
    134  N          4.5940    8.4790   17.1520 N.3   103  THR103     -0.1203
    135  CA         4.0190    7.5840   18.1890 C.3   103  THR103      0.1994
    136  C          3.7340    8.2620   19.5190 C.2   103  THR103      0.2618
    137  O          3.0920    7.6760   20.3900 O.2   103  THR103     -0.2717
    138  CB         4.9020    6.3360   18.4800 C.3   103  THR103      0.1784
    139  OG1        6.2340    6.7740   18.7900 O.3   103  THR103     -0.2211
    140  CG2        4.9230    5.3740   17.2680 C.3   103  THR103      0.0376
    141  N          4.2110    9.4860   19.7000 N.am  104  ALA104     -0.1965
    142  CA         3.7470   10.2580   20.8150 C.3   104  ALA104      0.1728
    143  C          2.2160   10.3540   20.8380 C.2   104  ALA104      0.2616
    144  O          1.6500   10.5390   21.8990 O.2   104  ALA104     -0.2715
    145  CB         4.3600   11.6160   20.8160 C.3   104  ALA104      0.0334
    146  N          1.5570   10.2600   19.6830 N.am  105  TRP105     -0.1960
    147  CA         0.0880   10.2980   19.6500 C.3   105  TRP105      0.1771
    148  C         -0.4570    8.8970   19.5540 C.2   105  TRP105      0.2620
    149  O         -0.1010    8.1280   18.6640 O.2   105  TRP105     -0.2715
    150  CB        -0.4350   11.1340   18.4710 C.3   105  TRP105      0.0590
    151  CG        -0.1730   12.5840   18.6660 C.ar  105  TRP105      0.0006
    152  CD1       -1.0180   13.4990   19.2630 C.ar  105  TRP105      0.0946
    153  CD2        1.0300   13.3140   18.3240 C.ar  105  TRP105      0.0152
    154  NE1       -0.4220   14.7400   19.2930 N.ar  105  TRP105     -0.2442
    155  CE2        0.8340   14.6580   18.7360 C.ar  105  TRP105      0.0810
    156  CE3        2.2590   12.9650   17.7370 C.ar  105  TRP105      0.0012
    157  CZ2        1.8210   15.6550   18.5620 C.ar  105  TRP105      0.0191
    158  CZ3        3.2520   13.9780   17.5630 C.ar  105  TRP105      0.0001
    159  CH2        3.0220   15.2910   17.9750 C.ar  105  TRP105      0.0015
    160  N         -1.3470    8.5690   20.4670 N.am  106  SER106     -0.1950
    161  CA        -2.0070    7.2690   20.4440 C.3   106  SER106      0.1924
    162  C         -2.8800    7.1240   19.2210 C.2   106  SER106      0.2314
    163  O         -3.2310    6.0290   18.8640 O.2   106  SER106     -0.2863
    164  CB        -2.8460    7.0590   21.6850 C.3   106  SER106      0.2116
    165  OG        -3.8750    8.0280   21.6840 O.3   106  SER106     -0.2180
@<TRIPOS>BOND
     1    35    33   ar
     2    35    34   ar
     3    33    31   ar
     4    34    32   ar
     5    31    30   ar
     6   134   135    1
     7    32    30   ar
     8   140   138    1
     9    30    29    1
    10   158   156   ar
    11   158   159   ar
    12   156   153   ar
    13   159   157   ar
    14   135   138    1
    15   135   136    1
    16   153   151   ar
    17   153   155   ar
    18   150   151    1
    19   150   147    1
    20   138   139    1
    21   157   155   ar
    22   149   148    2
    23   151   152   ar
    24    29    26    1
    25   155   154   ar
    26   163   162    2
    27   116   117    1
    28   128   127    2
    29   110   111    2
    30   110   109    1
    31   127   126    1
    32    26    25    1
    33    26    27    1
    34   162   161    1
    35   152   154   ar
    36   136   141   am
    37   136   137    2
    38   148   147    1
    39   148   160   am
    40   147   146    1
    41   146   143   am
    42   141   142    1
    43   108   109    1
    44   117   118    1
    45   117   120    1
    46   125   118   am
    47   125   126    1
    48   109   112    1
    49   118   119    2
    50   126   129    1
    51    27    28    2
    52    27    36   am
    53   161   160    1
    54   161   164    1
    55   112   114    1
    56   112   113    1
    57   142   145    1
    58   142   143    1
    59   143   144    2
    60   121   120    1
    61   121   122    1
    62   129   130    1
    63    36    37    1
    64    52    50    1
    65   165   164    1
    66   113   115    1
    67   130   131    1
    68    50    49    1
    69    41    40    1
    70    41    42    1
    71    40    37    1
    72   122   124   am
    73   122   123    2
    74    37    38    1
    75   131   133   am
    76   131   132    2
    77    38    39    2
    78    38    45   am
    79    45    46    1
    80    42    44   am
    81    42    43    2
    82    49    46    1
    83    49    51    1
    84    86    85   ar
    85    86    84   ar
    86    46    47    1
    87    85    83   ar
    88    84    82   ar
    89    83    80   ar
    90    82    80   ar
    91    82    81   ar
    92    80    78   ar
    93    81    79   ar
    94   107   105   ar
    95    47    53   am
    96    47    48    2
    97   102   101    2
    98    78    79   ar
    99    78    77    1
   100   104   105    1
   101   104   103    1
   102    53    54    1
   103    77    74    1
   104    21    22    1
   105    21    18    1
   106   101   100    1
   107   105   106   ar
   108    19    20    2
   109    19    18    1
   110    24    22   ar
   111    22    23   ar
   112   103   100    1
   113    18    17    1
   114    76    75    2
   115    74    75    1
   116    74    73    1
   117    54    57    1
   118    54    55    1
   119   100    99    1
   120    57    58    1
   121    56    55    2
   122    73    63   am
   123    64    63    2
   124    65    66    1
   125    65    62    1
   126     7     6    2
   127    63    62    1
   128    58    60   am
   129    58    59    2
   130    66    68   ar
   131    66    67   ar
   132    68    70   ar
   133     8     6   am
   134     6     5    1
   135    62    61    1
   136    67    69   ar
   137    70    71   ar
   138    69    71   ar
   139    71    72    1
   140     5     2    1
   141    90    89    2
   142     2     1    1
   143     2     3    1
   144    89    88    1
   145    91    88    1
   146    91    92    1
   147    88    87    1
   148    92    94   ar
   149    92    93   ar
   150    15    14    2
   151     3     4    2
   152    16    14   am
   153    94    96   ar
   154    93    95   ar
   155    14    13    1
   156    96    97   ar
   157    95    97   ar
   158     9    10    1
   159    13    10    1
   160    97    98    1
   161    10    11    1
   162    11    12    2
