@<TRIPOS>MOLECULE
tmp/2h63D00.pdb
 204 197 0 0 0
SMALL
GASTEIGER

@<TRIPOS>ATOM
      1  N        -31.2180  -12.2780  -62.1290 N.3    10  GLY10      -0.1210
      2  CA       -29.8570  -12.7360  -62.3640 C.3    10  GLY10       0.1956
      3  C        -29.4470  -13.7700  -61.3290 C.2    10  GLY10       0.2612
      4  O        -29.1440  -13.4280  -60.1910 O.2    10  GLY10      -0.2717
      5  N        -29.4570  -15.0400  -61.7190 N.am   11  VAL11      -0.1965
      6  CA       -29.1550  -16.1360  -60.8110 C.3    11  VAL11       0.1727
      7  C        -27.7140  -16.5950  -61.0020 C.2    11  VAL11       0.2617
      8  O        -27.4510  -17.6810  -61.5110 O.2    11  VAL11      -0.2715
      9  CB       -30.0930  -17.3430  -61.0260 C.3    11  VAL11       0.0290
     10  CG1      -29.9480  -18.3060  -59.8570 C.3    11  VAL11       0.0023
     11  CG2      -31.5670  -16.8870  -61.2310 C.3    11  VAL11       0.0023
     12  N        -26.7730  -15.7660  -60.5840 N.am   12  GLY12      -0.1940
     13  CA       -25.3500  -16.1450  -60.5850 C.3    12  GLY12       0.2014
     14  C        -24.8970  -16.4660  -59.1650 C.2    12  GLY12       0.2639
     15  O        -25.7050  -16.9120  -58.3430 O.2    12  GLY12      -0.2714
     16  N        -23.6150  -16.2560  -58.8720 N.am   13  ARG13      -0.1963
     17  CA       -23.1110  -16.4130  -57.5110 C.3    13  ARG13       0.1729
     18  C        -23.9050  -15.5040  -56.5320 C.2    13  ARG13       0.2616
     19  O        -24.5110  -15.9770  -55.5580 O.2    13  ARG13      -0.2715
     20  CB       -21.6010  -16.1100  -57.4390 C.3    13  ARG13       0.0348
     21  CG       -20.7110  -17.1940  -58.0240 C.3    13  ARG13       0.0492
     22  CD       -19.2670  -16.7190  -58.1180 C.3    13  ARG13       0.2205
     23  NE       -19.1190  -15.6210  -59.0750 N.pl3  13  ARG13      -0.0865
     24  CZ       -19.1210  -14.3280  -58.7570 C.cat  13  ARG13       0.5346
     25  NH1      -19.2670  -13.9420  -57.4940 N.pl3  13  ARG13       0.1354
     26  NH2      -18.9950  -13.4130  -59.7090 N.pl3  13  ARG13       0.1354
     27  N        -23.9230  -14.2020  -56.7840 N.am   14  ALA14      -0.1977
     28  CA       -24.6770  -13.2870  -55.9050 C.3    14  ALA14       0.1597
     29  C        -26.1340  -13.7160  -55.7690 C.2    14  ALA14       0.2287
     30  O        -26.6380  -13.8470  -54.6680 O.2    14  ALA14      -0.2864
     31  CB       -24.5990  -11.8240  -56.3970 C.3    14  ALA14       0.0319
     32  N        -26.9330  -16.8060  -53.4630 N.3    17  VAL17      -0.1245
     33  CA       -26.8600  -16.5390  -52.0340 C.3    17  VAL17       0.1561
     34  C        -28.1090  -15.7880  -51.5610 C.2    17  VAL17       0.2260
     35  O        -28.6610  -16.0850  -50.4960 O.2    17  VAL17      -0.2867
     36  CB       -25.5970  -15.7820  -51.6360 C.3    17  VAL17       0.0252
     37  CG1      -25.7220  -15.2670  -50.2310 C.3    17  VAL17       0.0019
     38  CG2      -24.3800  -16.6940  -51.7610 C.3    17  VAL17       0.0019
     39  N        -35.7390  -14.0320  -62.1870 N.3    38  VAL38      -0.1231
     40  CA       -35.6570  -13.6500  -63.5940 C.3    38  VAL38       0.1692
     41  C        -34.2540  -13.9810  -64.0690 C.2    38  VAL38       0.2593
     42  O        -33.2720  -13.6240  -63.4300 O.2    38  VAL38      -0.2718
     43  CB       -35.9120  -12.1310  -63.7790 C.3    38  VAL38       0.0266
     44  CG1      -35.8710  -11.7530  -65.2560 C.3    38  VAL38       0.0020
     45  CG2      -37.2420  -11.7330  -63.1290 C.3    38  VAL38       0.0020
     46  N        -34.1710  -14.6710  -65.1820 N.am   39  SER39      -0.1938
     47  CA       -32.9030  -15.0520  -65.7620 C.3    39  SER39       0.2055
     48  C        -32.9730  -14.9370  -67.2930 C.2    39  SER39       0.2643
     49  O        -34.0200  -15.1820  -67.9040 O.2    39  SER39      -0.2714
     50  CB       -32.5640  -16.4960  -65.3580 C.3    39  SER39       0.2130
     51  OG       -31.4060  -16.9930  -66.0020 O.3    39  SER39      -0.2179
     52  N        -31.8620  -14.5300  -67.9010 N.am   40  ARG40      -0.1963
     53  CA       -31.7040  -14.5530  -69.3540 C.3    40  ARG40       0.1729
     54  C        -31.7510  -16.0050  -69.8830 C.2    40  ARG40       0.2616
     55  O        -32.0540  -16.2210  -71.0500 O.2    40  ARG40      -0.2715
     56  CB       -30.3690  -13.8970  -69.7660 C.3    40  ARG40       0.0348
     57  CG       -30.4350  -12.4510  -70.3000 C.3    40  ARG40       0.0492
     58  CD       -30.4190  -11.3740  -69.2530 C.3    40  ARG40       0.2205
     59  NE       -29.5440  -11.6520  -68.1040 N.pl3  40  ARG40      -0.0865
     60  CZ       -28.3110  -11.1670  -67.8810 C.cat  40  ARG40       0.5346
     61  NH1      -27.6830  -11.5360  -66.7740 N.pl3  40  ARG40       0.1354
     62  NH2      -27.6930  -10.3380  -68.7170 N.pl3  40  ARG40       0.1354
     63  N        -31.4490  -16.9830  -69.0220 N.am   41  ARG41      -0.1977
     64  CA       -31.4980  -18.4180  -69.3690 C.3    41  ARG41       0.1597
     65  C        -32.7720  -19.0700  -68.8590 C.2    41  ARG41       0.2287
     66  O        -33.3930  -18.5820  -67.9250 O.2    41  ARG41      -0.2864
     67  CB       -30.3280  -19.1790  -68.7460 C.3    41  ARG41       0.0334
     68  CG       -28.9830  -18.4860  -68.8760 C.3    41  ARG41       0.0492
     69  CD       -27.9490  -19.0210  -67.8900 C.3    41  ARG41       0.2205
     70  NE       -28.2130  -18.5890  -66.5220 N.pl3  41  ARG41      -0.0865
     71  CZ       -27.5100  -18.9800  -65.4660 C.cat  41  ARG41       0.5346
     72  NH1      -26.4950  -19.8040  -65.6170 N.pl3  41  ARG41       0.1354
     73  NH2      -27.8100  -18.5410  -64.2510 N.pl3  41  ARG41       0.1354
     74  N        -28.9940   -8.7710  -59.2770 N.3    69  CYS69      -0.1221
     75  CA       -27.7380   -9.5410  -59.0670 C.3    69  CYS69       0.1808
     76  C        -27.0310   -9.9660  -60.3610 C.2    69  CYS69       0.2602
     77  O        -26.2860  -10.9710  -60.3890 O.2    69  CYS69      -0.2717
     78  CB       -28.0290  -10.8130  -58.2860 C.3    69  CYS69       0.0970
     79  SG       -28.9090  -10.4730  -56.8230 S.3    69  CYS69      -0.0800
     80  N        -27.2640   -9.2070  -61.4200 N.am   70  SER70      -0.1938
     81  CA       -26.6890   -9.4880  -62.7110 C.3    70  SER70       0.2055
     82  C        -25.2880   -8.8890  -62.8020 C.2    70  SER70       0.2643
     83  O        -24.8760   -8.1810  -61.9080 O.2    70  SER70      -0.2714
     84  CB       -27.5850   -8.8490  -63.7860 C.3    70  SER70       0.2130
     85  OG       -27.6040   -7.4320  -63.6350 O.3    70  SER70      -0.2179
     86  N        -24.5700   -9.1520  -63.8890 N.am   71  GLU71      -0.1963
     87  CA       -23.2770   -8.4950  -64.1340 C.3    71  GLU71       0.1733
     88  C        -23.4770   -7.0160  -64.1150 C.2    71  GLU71       0.2617
     89  O        -24.5000   -6.5220  -64.5930 O.2    71  GLU71      -0.2715
     90  CB       -22.6490   -8.7940  -65.4990 C.3    71  GLU71       0.0429
     91  CG       -23.3550   -9.8060  -66.4020 C.3    71  GLU71       0.1163
     92  CD       -24.6960   -9.3100  -66.9010 C.2    71  GLU71       0.3649
     93  OE1      -24.7070   -8.4080  -67.7650 O.co2  71  GLU71      -0.2457
     94  OE2      -25.7310   -9.8180  -66.4230 O.co2  71  GLU71      -0.2457
     95  N        -22.4610   -6.3170  -63.6170 N.am   72  SER72      -0.1950
     96  CA       -22.4870   -4.8570  -63.4510 C.3    72  SER72       0.1924
     97  C        -22.9920   -4.0700  -64.6700 C.2    72  SER72       0.2314
     98  O        -23.7050   -3.0980  -64.5190 O.2    72  SER72      -0.2863
     99  CB       -21.0930   -4.3570  -63.0770 C.3    72  SER72       0.2116
    100  OG       -20.5990   -5.0400  -61.9290 O.3    72  SER72      -0.2180
    101  N        -26.7310   -3.4780  -64.7170 N.3    75  HIS75      -0.1241
    102  CA       -27.3970   -2.9930  -63.5190 C.3    75  HIS75       0.1621
    103  C        -28.2520   -1.7890  -63.8580 C.2    75  HIS75       0.2264
    104  O        -29.4660   -1.7680  -63.6130 O.2    75  HIS75      -0.2867
    105  CB       -26.4200   -2.6280  -62.3970 C.3    75  HIS75       0.0745
    106  CG       -25.8760   -3.8040  -61.6460 C.ar   75  HIS75       0.0817
    107  ND1      -24.9050   -3.6770  -60.6830 N.ar   75  HIS75      -0.2268
    108  CD2      -26.1440   -5.1240  -61.7320 C.ar   75  HIS75       0.1154
    109  CE1      -24.6050   -4.8660  -60.2030 C.ar   75  HIS75       0.1986
    110  NE2      -25.3490   -5.7620  -60.8180 N.ar   75  HIS75      -0.2212
    111  N        -26.4090   -5.0480  -56.3390 N.3    92  GLU92      -0.1231
    112  CA       -25.0820   -5.3530  -55.8580 C.3    92  GLU92       0.1699
    113  C        -24.1310   -4.3290  -56.3960 C.2    92  GLU92       0.2592
    114  O        -24.3980   -3.6940  -57.3830 O.2    92  GLU92      -0.2718
    115  CB       -24.6430   -6.7640  -56.2600 C.3    92  GLU92       0.0402
    116  CG       -25.6630   -7.8970  -55.9840 C.3    92  GLU92       0.1161
    117  CD       -25.9620   -8.1470  -54.5250 C.2    92  GLU92       0.3649
    118  OE1      -25.4270   -7.4570  -53.6510 O.co2  92  GLU92      -0.2457
    119  OE2      -26.7280   -9.0670  -54.2320 O.co2  92  GLU92      -0.2457
    120  N        -23.0130   -4.1290  -55.7400 N.am   93  TYR93      -0.1963
    121  CA       -22.1020   -3.1180  -56.2530 C.3    93  TYR93       0.1756
    122  C        -21.3680   -3.6170  -57.4930 C.2    93  TYR93       0.2461
    123  O        -21.1840   -4.8080  -57.6570 O.2    93  TYR93      -0.2730
    124  CB       -21.1240   -2.7000  -55.1760 C.3    93  TYR93       0.0574
    125  CG       -20.0660   -3.7250  -54.8220 C.ar   93  TYR93      -0.0198
    126  CD1      -18.9230   -3.8960  -55.6140 C.ar   93  TYR93      -0.0009
    127  CD2      -20.1750   -4.4740  -53.6610 C.ar   93  TYR93      -0.0009
    128  CE1      -17.9480   -4.8150  -55.2750 C.ar   93  TYR93       0.0417
    129  CE2      -19.2090   -5.3980  -53.3150 C.ar   93  TYR93       0.0417
    130  CZ       -18.0960   -5.5650  -54.1250 C.ar   93  TYR93       0.1957
    131  OH       -17.1380   -6.4770  -53.7560 O.3    93  TYR93      -0.2866
    132  N        -20.9380   -2.7060  -58.3690 N.am   94  PRO94      -0.2727
    133  CA       -21.2420   -1.2900  -58.4110 C.3    94  PRO94       0.1402
    134  C        -22.6240   -1.1020  -58.9750 C.2    94  PRO94       0.2269
    135  O        -23.0210   -1.8140  -59.8840 O.2    94  PRO94      -0.2865
    136  CB       -20.2090   -0.7220  -59.3950 C.3    94  PRO94       0.0296
    137  CG       -19.8450   -1.8300  -60.2620 C.3    94  PRO94       0.0237
    138  CD       -20.0040   -3.0930  -59.4470 C.3    94  PRO94       0.0939
    139  N        -25.5910   -2.5920  -52.3360 N.3   119  GLU119     -0.1245
    140  CA       -25.0600   -3.5080  -51.3470 C.3   119  GLU119      0.1567
    141  C        -23.5800   -3.2780  -51.1430 C.2   119  GLU119      0.2260
    142  O        -22.8640   -3.0960  -52.1090 O.2   119  GLU119     -0.2867
    143  CB       -25.2680   -4.9470  -51.8080 C.3   119  GLU119      0.0388
    144  CG       -24.3170   -5.9810  -51.2200 C.3   119  GLU119      0.1160
    145  CD       -23.0460   -6.1840  -52.0540 C.2   119  GLU119      0.3649
    146  OE1      -23.1790   -6.7310  -53.1900 O.co2 119  GLU119     -0.2457
    147  OE2      -21.9310   -5.8320  -51.5680 O.co2 119  GLU119     -0.2457
    148  N        -21.3020   -5.5130  -48.8130 N.3   121  VAL121     -0.1245
    149  CA       -20.9720   -6.5790  -47.8760 C.3   121  VAL121      0.1561
    150  C        -19.5570   -6.4550  -47.3470 C.2   121  VAL121      0.2260
    151  O        -19.2630   -6.9480  -46.2700 O.2   121  VAL121     -0.2867
    152  CB       -21.1370   -7.9420  -48.5240 C.3   121  VAL121      0.0252
    153  CG1      -22.5720   -8.1240  -49.0460 C.3   121  VAL121      0.0019
    154  CG2      -20.1460   -8.1110  -49.6540 C.3   121  VAL121      0.0019
    155  N        -18.3380   -6.8900  -68.9310 N.3   156  ARG156     -0.1231
    156  CA       -19.5320   -7.1960  -68.1280 C.3   156  ARG156      0.1694
    157  C        -19.4400   -6.8970  -66.6150 C.2   156  ARG156      0.2592
    158  O        -20.4600   -6.7370  -65.9430 O.2   156  ARG156     -0.2718
    159  CB       -19.9800   -8.6430  -68.3800 C.3   156  ARG156      0.0321
    160  CG       -18.9690   -9.7230  -68.0160 C.3   156  ARG156      0.0489
    161  CD       -19.1720  -10.9630  -68.8770 C.3   156  ARG156      0.2205
    162  NE       -20.5730  -11.3960  -68.9200 N.pl3 156  ARG156     -0.0865
    163  CZ       -21.1900  -12.0910  -67.9640 C.cat 156  ARG156      0.5346
    164  NH1      -20.5470  -12.4500  -66.8580 N.pl3 156  ARG156      0.1354
    165  NH2      -22.4690  -12.4300  -68.1180 N.pl3 156  ARG156      0.1354
    166  N        -18.2280   -6.8220  -66.0730 N.am  157  PHE157     -0.1976
    167  CA       -18.0340   -6.3660  -64.6950 C.3   157  PHE157      0.1639
    168  C        -17.3770   -4.9870  -64.6290 C.2   157  PHE157      0.2290
    169  O        -17.2230   -4.4210  -63.5320 O.2   157  PHE157     -0.2864
    170  CB       -17.2150   -7.3860  -63.9210 C.3   157  PHE157      0.0560
    171  CG       -17.9500   -8.6510  -63.6600 C.ar  157  PHE157     -0.0200
    172  CD1      -18.6650   -8.8250  -62.4810 C.ar  157  PHE157     -0.0042
    173  CD2      -17.9540   -9.6650  -64.5920 C.ar  157  PHE157     -0.0042
    174  CE1      -19.3690  -10.0090  -62.2340 C.ar  157  PHE157     -0.0003
    175  CE2      -18.6560  -10.8430  -64.3600 C.ar  157  PHE157     -0.0003
    176  CZ       -19.3660  -11.0120  -63.1760 C.ar  157  PHE157     -0.0000
    177  N        -15.2230   -2.4970  -60.5070 N.3   163  SER163     -0.1217
    178  CA       -15.3220   -3.8880  -60.0840 C.3   163  SER163      0.1889
    179  C        -14.7850   -4.0700  -58.6870 C.2   163  SER163      0.2288
    180  O        -15.2540   -4.9250  -57.9700 O.2   163  SER163     -0.2866
    181  CB       -14.5280   -4.7910  -61.0320 C.3   163  SER163      0.2089
    182  OG       -13.1190   -4.6880  -60.7940 O.3   163  SER163     -0.2183
    183  N         -7.0030  -15.1340  -55.3010 N.3   216  ARG216     -0.1245
    184  CA        -7.7420  -14.0440  -54.6860 C.3   216  ARG216      0.1563
    185  C         -7.1710  -13.7030  -53.2990 C.2   216  ARG216      0.2260
    186  O         -7.2720  -14.5140  -52.3830 O.2   216  ARG216     -0.2867
    187  CB        -9.2210  -14.4470  -54.5920 C.3   216  ARG216      0.0307
    188  CG       -10.1520  -13.3900  -55.1270 C.3   216  ARG216      0.0489
    189  CD       -11.4430  -13.9560  -55.7110 C.3   216  ARG216      0.2205
    190  NE       -12.4640  -12.9150  -55.6330 N.pl3 216  ARG216     -0.0865
    191  CZ       -13.0600  -12.5090  -54.5030 C.cat 216  ARG216      0.5346
    192  NH1      -12.7680  -13.0760  -53.3260 N.pl3 216  ARG216      0.1354
    193  NH2      -13.9640  -11.5280  -54.5460 N.pl3 216  ARG216      0.1354
    194  N        -23.8870  -11.2590  -46.7240 N.3   242  PHE242     -0.1241
    195  CA       -25.0740  -10.9250  -47.5390 C.3   242  PHE242      0.1605
    196  C        -26.3200  -10.7680  -46.7000 C.2   242  PHE242      0.2264
    197  O        -27.0000   -9.7680  -46.8310 O.2   242  PHE242     -0.2867
    198  CB       -25.3120  -11.9420  -48.6490 C.3   242  PHE242      0.0534
    199  CG       -24.4250  -11.7270  -49.8010 C.ar  242  PHE242     -0.0203
    200  CD1      -24.8220  -10.9160  -50.8490 C.ar  242  PHE242     -0.0042
    201  CD2      -23.1570  -12.2770  -49.8190 C.ar  242  PHE242     -0.0042
    202  CE1      -23.9730  -10.6750  -51.9280 C.ar  242  PHE242     -0.0003
    203  CE2      -22.3070  -12.0340  -50.8780 C.ar  242  PHE242     -0.0003
    204  CZ       -22.7110  -11.2290  -51.9250 C.ar  242  PHE242     -0.0000
@<TRIPOS>BOND
     1    55    54    2
     2    57    56    1
     3    57    58    1
     4    54    53    1
     5    54    63   am
     6    56    53    1
     7    64    63    1
     8    64    65    1
     9    64    67    1
    10    53    52    1
    11    58    59    1
    12   155   156    1
    13   162   161    1
    14   162   163    2
    15   161   160    1
    16    68    67    1
    17    68    69    1
    18    65    66    2
    19    62    60    1
    20   159   156    1
    21   159   160    1
    22   156   157    1
    23   165   163    1
    24    59    60    2
    25   163   164    1
    26    49    48    2
    27    52    48   am
    28    69    70    1
    29    60    61    1
    30    93    92   ar
    31    48    47    1
    32    92    94   ar
    33    92    91    1
    34   157   166   am
    35   157   158    2
    36    70    71    2
    37    91    90    1
    38   166   167    1
    39    51    50    1
    40    47    50    1
    41    47    46    1
    42    72    71    1
    43    90    87    1
    44    71    73    1
    45    44    43    1
    46    46    41   am
    47   101   102    1
    48   167   168    1
    49   167   170    1
    50    97    98    2
    51    97    96    1
    52   168   169    2
    53    89    88    2
    54   173   175   ar
    55   173   171   ar
    56   175   176   ar
    57    87    88    1
    58    87    86    1
    59    88    95   am
    60    41    40    1
    61    41    42    2
    62   170   171    1
    63    86    82   am
    64   103   104    2
    65   103   102    1
    66    84    85    1
    67    84    81    1
    68    43    40    1
    69    43    45    1
    70   171   172   ar
    71    95    96    1
    72    40    39    1
    73   102   105    1
    74    96    99    1
    75   176   174   ar
    76    99   100    1
    77    82    81    1
    78    82    83    2
    79    81    80    1
    80   172   174   ar
    81   105   106    1
    82     2     1    1
    83     2     3    1
    84   108   106   ar
    85   108   110   ar
    86     5     3   am
    87     5     6    1
    88   106   107   ar
    89     8     7    2
    90    80    76   am
    91     3     4    2
    92    11     9    1
    93   181   182    1
    94   181   178    1
    95     9     6    1
    96     9    10    1
    97     7     6    1
    98     7    12   am
    99   110   109   ar
   100   107   109   ar
   101    13    12    1
   102    13    14    1
   103   177   178    1
   104    77    76    2
   105    76    75    1
   106   137   138    1
   107   137   136    1
   108   178   179    1
   109   135   134    2
   110    26    24    1
   111   138   132    1
   112   136   133    1
   113    74    75    1
   114    14    16   am
   115    14    15    2
   116    23    24    2
   117    23    22    1
   118    75    78    1
   119   134   133    1
   120    16    17    1
   121    24    25    1
   122   179   180    2
   123   133   132    1
   124   132   122   am
   125    78    79    1
   126    22    21    1
   127    21    20    1
   128   123   122    2
   129    17    20    1
   130    17    18    1
   131   122   121    1
   132   114   113    2
   133    27    18   am
   134    27    28    1
   135    18    19    2
   136    31    28    1
   137   113   112    1
   138   113   120   am
   139   111   112    1
   140   115   116    1
   141   115   112    1
   142   121   120    1
   143   121   124    1
   144   116   117    1
   145    28    29    1
   146    29    30    2
   147   189   190    1
   148   189   188    1
   149   190   191    2
   150   126   128   ar
   151   126   125   ar
   152   183   184    1
   153   128   130   ar
   154   124   125    1
   155   188   187    1
   156   125   127   ar
   157   184   187    1
   158   184   185    1
   159   193   191    1
   160   117   119   ar
   161   117   118   ar
   162   191   192    1
   163   130   131    1
   164   130   129   ar
   165   127   129   ar
   166    32    33    1
   167   185   186    2
   168   146   145   ar
   169   139   140    1
   170   142   141    2
   171   145   147   ar
   172   145   144    1
   173    33    36    1
   174    33    34    1
   175   202   204   ar
   176   202   200   ar
   177   204   203   ar
   178   143   140    1
   179   143   144    1
   180    38    36    1
   181    36    37    1
   182    34    35    2
   183   140   141    1
   184   203   201   ar
   185   200   199   ar
   186   201   199   ar
   187   199   198    1
   188   154   152    1
   189   153   152    1
   190   148   149    1
   191   198   195    1
   192   152   149    1
   193   149   150    1
   194   195   194    1
   195   195   196    1
   196   150   151    2
   197   197   196    2
