@<TRIPOS>MOLECULE
tmp/2h65B00.pdb
 140 144 0 0 0
SMALL
GASTEIGER

@<TRIPOS>ATOM
      1  N         23.0620   12.6450   30.0450 N.3    19  TYR19      -0.1227
      2  CA        23.4310   12.0800   31.3450 C.3    19  TYR19       0.1736
      3  C         22.1430   11.6500   32.0410 C.2    19  TYR19       0.2596
      4  O         21.0810   12.2010   31.7730 O.2    19  TYR19      -0.2718
      5  CB        24.0590   13.1550   32.2330 C.3    19  TYR19       0.0548
      6  CG        25.5440   13.3400   32.0980 C.ar   19  TYR19      -0.0200
      7  CD1       26.0800   14.5490   31.6580 C.ar   19  TYR19      -0.0009
      8  CD2       26.4180   12.3290   32.4800 C.ar   19  TYR19      -0.0009
      9  CE1       27.4640   14.7480   31.6130 C.ar   19  TYR19       0.0417
     10  CE2       27.7900   12.5120   32.4410 C.ar   19  TYR19       0.0417
     11  CZ        28.3090   13.7190   32.0100 C.ar   19  TYR19       0.1957
     12  OH        29.6730   13.8840   32.0100 O.3    19  TYR19      -0.2866
     13  N         22.2310   10.6730   32.9300 N.am   20  SER20      -0.1938
     14  CA        21.0660   10.2700   33.6980 C.3    20  SER20       0.2055
     15  C         21.4500   10.6560   35.1240 C.2    20  SER20       0.2643
     16  O         22.6170   10.5140   35.5190 O.2    20  SER20      -0.2714
     17  CB        20.8360    8.7690   33.6020 C.3    20  SER20       0.2130
     18  OG        19.6520    8.4000   34.3060 O.3    20  SER20      -0.2179
     19  N         20.4930   11.1520   35.8950 N.am   21  TRP21      -0.1959
     20  CA        20.8110   11.5730   37.2470 C.3    21  TRP21       0.1771
     21  C         20.3920   10.6330   38.3650 C.2    21  TRP21       0.2620
     22  O         19.4000    9.9090   38.2670 O.2    21  TRP21      -0.2715
     23  CB        20.2580   12.9810   37.4830 C.3    21  TRP21       0.0590
     24  CG        20.9350   14.0000   36.5900 C.ar   21  TRP21       0.0006
     25  CD1       20.5650   14.3690   35.3210 C.ar   21  TRP21       0.0946
     26  CD2       22.1320   14.7270   36.8810 C.ar   21  TRP21       0.0152
     27  NE1       21.4640   15.2720   34.8060 N.ar   21  TRP21      -0.2442
     28  CE2       22.4440   15.4990   35.7380 C.ar   21  TRP21       0.0810
     29  CE3       22.9960   14.7750   37.9840 C.ar   21  TRP21       0.0012
     30  CZ2       23.5580   16.3450   35.6850 C.ar   21  TRP21       0.0191
     31  CZ3       24.1030   15.6120   37.9280 C.ar   21  TRP21       0.0001
     32  CH2       24.3810   16.3730   36.7810 C.ar   21  TRP21       0.0015
     33  N         21.1710   10.6600   39.4360 N.am   22  ARG22      -0.1963
     34  CA        20.9350    9.8260   40.5950 C.3    22  ARG22       0.1729
     35  C         21.1990   10.6260   41.8630 C.2    22  ARG22       0.2616
     36  O         22.1810   11.3610   41.9540 O.2    22  ARG22      -0.2715
     37  CB        21.8540    8.6010   40.5270 C.3    22  ARG22       0.0348
     38  CG        21.9830    7.8280   41.8240 C.3    22  ARG22       0.0492
     39  CD        22.7600    6.5320   41.6190 C.3    22  ARG22       0.2205
     40  NE        23.9720    6.7100   40.8220 N.pl3  22  ARG22      -0.0865
     41  CZ        25.0960    7.2600   41.2690 C.cat  22  ARG22       0.5346
     42  NH1       26.1380    7.3770   40.4610 N.pl3  22  ARG22       0.1354
     43  NH2       25.1800    7.6830   42.5210 N.pl3  22  ARG22       0.1354
     44  N         20.3010   10.5120   42.8300 N.am   23  ASN23      -0.1958
     45  CA        20.4800   11.2160   44.0880 C.3    23  ASN23       0.1819
     46  C         21.2820   10.2720   44.9760 C.2    23  ASN23       0.2622
     47  O         20.8900    9.1220   45.1870 O.2    23  ASN23      -0.2715
     48  CB        19.1240   11.5450   44.7180 C.3    23  ASN23       0.1195
     49  CG        19.2590   12.2840   46.0340 C.2    23  ASN23       0.2630
     50  OD1       19.5520   11.6830   47.0620 O.2    23  ASN23      -0.2716
     51  ND2       19.0620   13.5990   46.0040 N.am   23  ASN23      -0.0877
     52  N         22.4060   10.7650   45.4850 N.am   24  SER24      -0.1936
     53  CA        23.3010    9.9660   46.3180 C.3    24  SER24       0.2055
     54  C         22.6580    9.3370   47.5520 C.2    24  SER24       0.2642
     55  O         23.2710    8.5030   48.2090 O.2    24  SER24      -0.2714
     56  CB        24.5190   10.8110   46.7330 C.3    24  SER24       0.2130
     57  OG        24.1270   12.0190   47.3670 O.3    24  SER24      -0.2179
     58  N         21.4210    9.7180   47.8490 N.am   25  LYS25      -0.1977
     59  CA        20.7200    9.1990   49.0140 C.3    25  LYS25       0.1596
     60  C         19.4120    8.4740   48.6750 C.2    25  LYS25       0.2287
     61  O         19.1630    7.3760   49.1710 O.2    25  LYS25      -0.2864
     62  CB        20.4380   10.3530   49.9790 C.3    25  LYS25       0.0298
     63  CG        19.5120   10.0170   51.1320 C.3    25  LYS25       0.0038
     64  CD        19.0380   11.2850   51.8220 C.3    25  LYS25       0.0206
     65  CE        17.8990   11.0020   52.7830 C.3    25  LYS25       0.1093
     66  NZ        17.3910   12.2440   53.4380 N.3    25  LYS25      -0.1314
     67  N         18.1940    6.9590   41.8600 N.3    28  SER28      -0.1202
     68  CA        17.9450    7.5910   40.5790 C.3    28  SER28       0.2020
     69  C         16.5580    8.1910   40.4790 C.2    28  SER28       0.2618
     70  O         15.5560    7.5720   40.8640 O.2    28  SER28      -0.2717
     71  CB        18.1500    6.5920   39.4370 C.3    28  SER28       0.2103
     72  OG        17.2150    5.5390   39.4950 O.3    28  SER28      -0.2182
     73  N         16.5100    9.4040   39.9440 N.am   29  TRP29      -0.1975
     74  CA        15.2680   10.1290   39.7500 C.3    29  TRP29       0.1640
     75  C         14.2490    9.2690   39.0280 C.2    29  TRP29       0.2290
     76  O         13.0650    9.2510   39.3900 O.2    29  TRP29      -0.2864
     77  CB        15.5400   11.3770   38.9120 C.3    29  TRP29       0.0576
     78  CG        16.4980   12.3470   39.5020 C.ar   29  TRP29       0.0006
     79  CD1       17.0650   12.3050   40.7540 C.ar   29  TRP29       0.0946
     80  CD2       16.9850   13.5390   38.8820 C.ar   29  TRP29       0.0152
     81  NE1       17.8730   13.4010   40.9390 N.ar   29  TRP29      -0.2442
     82  CE2       17.8380   14.1750   39.8070 C.ar   29  TRP29       0.0810
     83  CE3       16.7800   14.1350   37.6260 C.ar   29  TRP29       0.0012
     84  CZ2       18.4870   15.3770   39.5170 C.ar   29  TRP29       0.0191
     85  CZ3       17.4280   15.3280   37.3390 C.ar   29  TRP29       0.0001
     86  CH2       18.2690   15.9360   38.2810 C.ar   29  TRP29       0.0015
     87  N         15.6880   18.5580   39.7990 N.3    63  GLU63      -0.1231
     88  CA        16.6590   19.5150   39.2820 C.3    63  GLU63       0.1699
     89  C         17.9230   19.1710   40.0270 C.2    63  GLU63       0.2593
     90  O         17.8890   18.9930   41.2380 O.2    63  GLU63      -0.2718
     91  CB        16.2400   20.9380   39.6050 C.3    63  GLU63       0.0402
     92  CG        17.0470   21.9640   38.8840 C.3    63  GLU63       0.1161
     93  CD        16.3280   23.2810   38.8210 C.2    63  GLU63       0.3649
     94  OE1       15.2450   23.3350   38.1910 O.co2  63  GLU63      -0.2457
     95  OE2       16.8350   24.2610   39.4090 O.co2  63  GLU63      -0.2457
     96  N         19.0440   19.0640   39.3270 N.am   64  SER64      -0.1938
     97  CA        20.2450   18.6670   40.0290 C.3    64  SER64       0.2055
     98  C         20.8100   19.7190   40.9480 C.2    64  SER64       0.2643
     99  O         20.7410   20.9160   40.6890 O.2    64  SER64      -0.2714
    100  CB        21.3390   18.2230   39.0580 C.3    64  SER64       0.2130
    101  OG        21.9190   19.3200   38.4010 O.3    64  SER64      -0.2179
    102  N         21.3710   19.2360   42.0430 N.am   65  PHE65      -0.1959
    103  CA        22.0170   20.0830   43.0080 C.3    65  PHE65       0.1771
    104  C         23.4180   19.4870   43.1140 C.2    65  PHE65       0.2620
    105  O         23.5820   18.3290   43.5070 O.2    65  PHE65      -0.2715
    106  CB        21.2960   20.0190   44.3490 C.3    65  PHE65       0.0574
    107  CG        21.9510   20.8410   45.4020 C.ar   65  PHE65      -0.0200
    108  CD1       22.9360   20.2930   46.2030 C.ar   65  PHE65      -0.0042
    109  CD2       21.6450   22.1910   45.5360 C.ar   65  PHE65      -0.0042
    110  CE1       23.6150   21.0730   47.1210 C.ar   65  PHE65      -0.0003
    111  CE2       22.3240   22.9850   46.4560 C.ar   65  PHE65      -0.0003
    112  CZ        23.3100   22.4260   47.2490 C.ar   65  PHE65      -0.0000
    113  N         24.4240   20.2640   42.7340 N.am   66  SER66      -0.1936
    114  CA        25.7960   19.7800   42.7830 C.3    66  SER66       0.2055
    115  C         26.7310   20.8800   43.2630 C.2    66  SER66       0.2643
    116  O         26.4540   22.0580   43.0600 O.2    66  SER66      -0.2714
    117  CB        26.2280   19.3100   41.3890 C.3    66  SER66       0.2130
    118  OG        27.5900   18.9070   41.3880 O.3    66  SER66      -0.2179
    119  N         27.8260   20.5020   43.9180 N.am   67  PHE67      -0.1973
    120  CA        28.7760   21.5050   44.3760 C.3    67  PHE67       0.1639
    121  C         29.5950   21.9610   43.1850 C.2    67  PHE67       0.2290
    122  O         30.2440   23.0110   43.2200 O.2    67  PHE67      -0.2864
    123  CB        29.6790   20.9680   45.4950 C.3    67  PHE67       0.0560
    124  CG        28.9330   20.6750   46.7740 C.ar   67  PHE67      -0.0200
    125  CD1       27.9440   21.5390   47.2250 C.ar   67  PHE67      -0.0042
    126  CD2       29.1930   19.5250   47.5080 C.ar   67  PHE67      -0.0042
    127  CE1       27.2250   21.2600   48.3830 C.ar   67  PHE67      -0.0003
    128  CE2       28.4740   19.2440   48.6730 C.ar   67  PHE67      -0.0003
    129  CZ        27.4880   20.1180   49.1010 C.ar   67  PHE67      -0.0000
    130  N         27.7680   20.6150   36.8660 N.3    71  PHE71      -0.1241
    131  CA        26.6700   19.6570   36.9560 C.3    71  PHE71       0.1605
    132  C         25.4800   20.1170   37.7950 C.2    71  PHE71       0.2264
    133  O         24.6180   19.3160   38.1540 O.2    71  PHE71      -0.2867
    134  CB        27.1900   18.3300   37.5060 C.3    71  PHE71       0.0534
    135  CG        28.2210   17.6820   36.6330 C.ar   71  PHE71      -0.0203
    136  CD1       29.5570   18.0760   36.6920 C.ar   71  PHE71      -0.0042
    137  CD2       27.8510   16.6850   35.7350 C.ar   71  PHE71      -0.0042
    138  CE1       30.5130   17.4850   35.8590 C.ar   71  PHE71      -0.0003
    139  CE2       28.7900   16.0890   34.9000 C.ar   71  PHE71      -0.0003
    140  CZ        30.1280   16.4880   34.9620 C.ar   71  PHE71      -0.0000
@<TRIPOS>BOND
     1     1     2    1
     2     2     3    1
     3     2     5    1
     4     9     7   ar
     5     9    11   ar
     6     7     6   ar
     7     4     3    2
     8    12    11    1
     9    11    10   ar
    10     3    13   am
    11     6     5    1
    12     6     8   ar
    13    10     8   ar
    14    13    14    1
    15    17    14    1
    16    17    18    1
    17    14    15    1
    18    27    25   ar
    19    27    28   ar
    20   139   140   ar
    21   139   137   ar
    22   140   138   ar
    23    15    16    2
    24    15    19   am
    25    25    24   ar
    26    30    28   ar
    27    30    32   ar
    28   137   135   ar
    29    28    26   ar
    30   138   136   ar
    31    19    20    1
    32    24    26   ar
    33    24    23    1
    34   135   136   ar
    35   135   134    1
    36    32    31   ar
    37   130   131    1
    38    26    29   ar
    39   131   134    1
    40   131   132    1
    41    20    23    1
    42    20    21    1
    43    85    83   ar
    44    85    86   ar
    45    83    80   ar
    46   132   133    2
    47    31    29   ar
    48    94    93   ar
    49    22    21    2
    50    86    84   ar
    51    21    33   am
    52   101   100    1
    53    93    92    1
    54    93    95   ar
    55    80    78   ar
    56    80    82   ar
    57    92    91    1
    58    77    78    1
    59    77    74    1
    60    75    76    2
    61    75    74    1
    62   100    97    1
    63    88    91    1
    64    88    87    1
    65    88    89    1
    66    96    89   am
    67    96    97    1
    68    33    34    1
    69    71    72    1
    70    71    68    1
    71    78    79   ar
    72    84    82   ar
    73    74    73    1
    74    82    81   ar
    75    73    69   am
    76    89    90    2
    77    97    98    1
    78    42    41    1
    79    69    68    1
    80    69    70    2
    81    37    34    1
    82    37    38    1
    83    68    67    1
    84    34    35    1
    85    99    98    2
    86    79    81   ar
    87    40    41    2
    88    40    39    1
    89    98   102   am
    90    41    43    1
    91   118   117    1
    92   117   114    1
    93    39    38    1
    94    35    36    2
    95    35    44   am
    96   102   103    1
    97   113   114    1
    98   113   104   am
    99   114   115    1
   100    44    45    1
   101   103   104    1
   102   103   106    1
   103   116   115    2
   104   104   105    2
   105   121   122    2
   106   121   120    1
   107   115   119   am
   108   119   120    1
   109    45    48    1
   110    45    46    1
   111   106   107    1
   112   120   123    1
   113    48    49    1
   114    46    47    2
   115    46    52   am
   116   107   109   ar
   117   107   108   ar
   118    52    53    1
   119   123   124    1
   120   109   111   ar
   121    51    49   am
   122    49    50    2
   123   108   110   ar
   124    53    56    1
   125    53    54    1
   126   111   112   ar
   127    56    57    1
   128   124   125   ar
   129   124   126   ar
   130   110   112   ar
   131   125   127   ar
   132   126   128   ar
   133    54    58   am
   134    54    55    2
   135    58    59    1
   136   127   129   ar
   137   128   129   ar
   138    60    59    1
   139    60    61    2
   140    59    62    1
   141    62    63    1
   142    63    64    1
   143    64    65    1
   144    65    66    1
