@<TRIPOS>MOLECULE
tmp/2h6bA00.pdb
 93 87 0 0 0
SMALL
GASTEIGER

@<TRIPOS>ATOM
      1  N         42.3080   85.7680   25.0320 N.3    61  LEU61      -0.1245
      2  CA        43.4730   86.2780   25.7600 C.3    61  LEU61       0.1561
      3  C         43.8650   87.6880   25.3420 C.2    61  LEU61       0.2260
      4  O         44.2980   87.9000   24.2300 O.2    61  LEU61      -0.2867
      5  CB        44.6720   85.3190   25.5850 C.3    61  LEU61       0.0270
      6  CG        45.8540   85.4340   26.5700 C.3    61  LEU61       0.0019
      7  CD1       46.3820   84.0550   26.9730 C.3    61  LEU61       0.0001
      8  CD2       46.9680   86.2770   25.9840 C.3    61  LEU61       0.0001
      9  N         45.3760   89.6820   22.2440 N.3    73  LEU73      -0.1231
     10  CA        46.4990   89.0150   21.6730 C.3    73  LEU73       0.1693
     11  C         46.0250   87.8460   20.8400 C.2    73  LEU73       0.2592
     12  O         46.3910   87.7520   19.6890 O.2    73  LEU73      -0.2718
     13  CB        47.4820   88.5210   22.7620 C.3    73  LEU73       0.0284
     14  CG        48.1140   89.5820   23.6770 C.3    73  LEU73       0.0019
     15  CD1       49.2280   88.9850   24.5290 C.3    73  LEU73       0.0001
     16  CD2       48.6150   90.7600   22.8550 C.3    73  LEU73       0.0001
     17  N         45.2370   86.9150   21.4010 N.am   74  TYR74      -0.1976
     18  CA        44.8000   85.7370   20.6050 C.3    74  TYR74       0.1639
     19  C         43.5990   85.0810   21.2360 C.2    74  TYR74       0.2290
     20  O         43.2610   85.4040   22.3790 O.2    74  TYR74      -0.2864
     21  CB        45.9530   84.7330   20.3810 C.3    74  TYR74       0.0560
     22  CG        46.5890   83.9110   21.5490 C.ar   74  TYR74      -0.0198
     23  CD1       47.9240   84.0170   21.8450 C.ar   74  TYR74      -0.0009
     24  CD2       45.8360   83.0570   22.3510 C.ar   74  TYR74      -0.0009
     25  CE1       48.5130   83.2370   22.8460 C.ar   74  TYR74       0.0417
     26  CE2       46.3910   82.2610   23.3380 C.ar   74  TYR74       0.0417
     27  CZ        47.7430   82.3200   23.5700 C.ar   74  TYR74       0.1957
     28  OH        48.2940   81.5310   24.5720 O.3    74  TYR74      -0.2866
     29  N         48.6450   77.6600   26.3190 N.3    82  ILE82      -0.1231
     30  CA        49.0690   78.9790   26.7210 C.3    82  ILE82       0.1692
     31  C         50.4250   78.7530   27.4100 C.2    82  ILE82       0.2593
     32  O         50.4820   78.1030   28.4500 O.2    82  ILE82      -0.2718
     33  CB        48.0150   79.6360   27.6960 C.3    82  ILE82       0.0266
     34  CG1       46.6870   79.7350   27.0070 C.3    82  ILE82       0.0019
     35  CG2       48.4500   81.0230   28.1860 C.3    82  ILE82       0.0020
     36  CD1       45.5950   80.1170   27.9310 C.3    82  ILE82       0.0001
     37  N         51.4870   79.3120   26.8750 N.am   83  GLY83      -0.1942
     38  CA        52.8090   78.9710   27.3430 C.3    83  GLY83       0.2014
     39  C         53.3710   79.8500   28.4380 C.2    83  GLY83       0.2638
     40  O         54.5810   80.0880   28.4910 O.2    83  GLY83      -0.2714
     41  N         52.5250   80.2640   29.3710 N.am   84  LYS84      -0.1977
     42  CA        52.9690   81.2520   30.4070 C.3    84  LYS84       0.1596
     43  C         53.6240   80.6520   31.6770 C.2    84  LYS84       0.2287
     44  O         53.1830   80.8790   32.8200 O.2    84  LYS84      -0.2864
     45  CB        51.8210   82.1790   30.7670 C.3    84  LYS84       0.0298
     46  CG        51.4870   83.1090   29.6520 C.3    84  LYS84       0.0038
     47  CD        50.2550   83.9560   30.0020 C.3    84  LYS84       0.0206
     48  CE        50.3570   84.8210   31.3330 C.3    84  LYS84       0.1093
     49  NZ        51.5310   85.7350   31.3430 N.3    84  LYS84      -0.1314
     50  N         56.2210   87.2810   32.7860 N.3    88  THR88      -0.1218
     51  CA        56.6230   88.0830   31.6440 C.3    88  THR88       0.1862
     52  C         56.4380   89.5250   32.0520 C.2    88  THR88       0.2287
     53  O         55.9080   89.8850   33.1350 O.2    88  THR88      -0.2866
     54  CB        55.7440   87.7600   30.4390 C.3    88  THR88       0.1770
     55  OG1       54.3980   88.1640   30.6700 O.3    88  THR88      -0.2211
     56  CG2       55.7520   86.2480   30.1810 C.3    88  THR88       0.0375
     57  N         54.1100   91.2420   31.1310 N.3    90  ASN90      -0.1240
     58  CA        52.7960   91.6800   30.6280 C.3    90  ASN90       0.1653
     59  C         51.6960   91.2780   31.5760 C.2    90  ASN90       0.2266
     60  O         51.7240   90.1950   32.1260 O.2    90  ASN90      -0.2867
     61  CB        52.4880   91.0880   29.2100 C.3    90  ASN90       0.1155
     62  CG        53.5190   91.4460   28.1730 C.2    90  ASN90       0.2627
     63  OD1       53.9860   92.6390   28.2400 O.2    90  ASN90      -0.2716
     64  ND2       53.9020   90.6310   27.2990 N.am   90  ASN90      -0.0877
     65  N         48.0830   89.9750   31.8730 N.3    92  ILE92      -0.1245
     66  CA        47.2150   89.2330   31.0150 C.3    92  ILE92       0.1561
     67  C         45.8530   88.9370   31.6770 C.2    92  ILE92       0.2260
     68  O         45.7740   88.5220   32.8290 O.2    92  ILE92      -0.2867
     69  CB        47.8640   87.9220   30.5850 C.3    92  ILE92       0.0252
     70  CG1       49.1730   88.1470   29.7670 C.3    92  ILE92       0.0019
     71  CG2       46.8770   87.1170   29.8100 C.3    92  ILE92       0.0019
     72  CD1       49.0550   88.9480   28.5290 C.3    92  ILE92       0.0001
     73  N         55.8460   77.5120   20.6780 N.3   128  TYR128     -0.1241
     74  CA        56.4790   78.7610   20.9340 C.3   128  TYR128      0.1605
     75  C         57.0000   79.3790   19.6550 C.2   128  TYR128      0.2264
     76  O         56.8030   80.5490   19.3950 O.2   128  TYR128     -0.2867
     77  CB        57.6780   78.5670   21.8670 C.3   128  TYR128      0.0534
     78  CG        57.4090   78.5970   23.3360 C.ar  128  TYR128     -0.0201
     79  CD1       57.8060   77.5140   24.1690 C.ar  128  TYR128     -0.0009
     80  CD2       56.8410   79.7200   23.9450 C.ar  128  TYR128     -0.0009
     81  CE1       57.5910   77.5560   25.5840 C.ar  128  TYR128      0.0417
     82  CE2       56.6050   79.7520   25.3130 C.ar  128  TYR128      0.0417
     83  CZ        56.9830   78.6760   26.1380 C.ar  128  TYR128      0.1957
     84  OH        56.7480   78.7450   27.5020 O.3   128  TYR128     -0.2866
     85  N         54.4600   81.1210   17.5970 N.3   131  LYS131     -0.1245
     86  CA        54.0530   82.3800   18.1770 C.3   131  LYS131      0.1561
     87  C         55.0470   83.5190   17.8950 C.2   131  LYS131      0.2260
     88  O         54.6510   84.6380   17.5630 O.2   131  LYS131     -0.2867
     89  CB        53.7710   82.2360   19.7040 C.3   131  LYS131      0.0271
     90  CG        52.6370   81.3200   20.0460 C.3   131  LYS131      0.0035
     91  CD        52.6410   80.9650   21.5840 C.3   131  LYS131      0.0206
     92  CE        51.4070   80.1430   21.9490 C.3   131  LYS131      0.1093
     93  NZ        51.4130   79.6870   23.4060 N.3   131  LYS131     -0.1314
@<TRIPOS>BOND
     1    88    87    2
     2    85    86    1
     3    87    86    1
     4    86    89    1
     5    76    75    2
     6    75    74    1
     7    12    11    2
     8    89    90    1
     9    90    91    1
    10    21    18    1
    11    21    22    1
    12    18    19    1
    13    18    17    1
    14    73    74    1
    15    11    17   am
    16    11    10    1
    17    74    77    1
    18    19    20    2
    19    22    23   ar
    20    22    24   ar
    21    91    92    1
    22    10     9    1
    23    10    13    1
    24    23    25   ar
    25    77    78    1
    26    92    93    1
    27    24    26   ar
    28    13    14    1
    29    25    27   ar
    30    16    14    1
    31    78    80   ar
    32    78    79   ar
    33    26    27   ar
    34    27    28    1
    35    14    15    1
    36    80    82   ar
    37    79    81   ar
    38     4     3    2
    39     1     2    1
    40    82    83   ar
    41     3     2    1
    42    81    83   ar
    43     5     2    1
    44     5     6    1
    45     8     6    1
    46    83    84    1
    47    29    30    1
    48     6     7    1
    49    30    31    1
    50    30    33    1
    51    37    38    1
    52    37    31   am
    53    34    33    1
    54    34    36    1
    55    64    62   am
    56    38    39    1
    57    31    32    2
    58    33    35    1
    59    62    63    2
    60    62    61    1
    61    39    40    2
    62    39    41   am
    63    72    70    1
    64    61    58    1
    65    41    42    1
    66    46    47    1
    67    46    45    1
    68    70    69    1
    69    71    69    1
    70    47    48    1
    71    56    54    1
    72    42    45    1
    73    42    43    1
    74    54    55    1
    75    54    51    1
    76    69    66    1
    77    58    57    1
    78    58    59    1
    79    66    67    1
    80    66    65    1
    81    48    49    1
    82    59    60    2
    83    51    52    1
    84    51    50    1
    85    43    44    2
    86    67    68    2
    87    52    53    2
