@<TRIPOS>MOLECULE
tmp/2h6fB00.pdb
 171 169 0 0 0
SMALL
GASTEIGER

@<TRIPOS>ATOM
      1  N         13.3820  143.9130   -4.4200 N.3    82  LEU82      -0.1245
      2  CA        12.5950  142.7480   -4.8130 C.3    82  LEU82       0.1561
      3  C         11.4880  143.1140   -5.8020 C.2    82  LEU82       0.2260
      4  O         10.4930  142.4040   -5.9330 O.2    82  LEU82      -0.2867
      5  CB        12.0090  142.0630   -3.5670 C.3    82  LEU82       0.0270
      6  CG        13.0330  141.2670   -2.7450 C.3    82  LEU82       0.0019
      7  CD1       12.4090  140.7890   -1.4410 C.3    82  LEU82       0.0001
      8  CD2       13.5300  140.0780   -3.5630 C.3    82  LEU82       0.0001
      9  N         11.5530  142.8110   -8.8110 N.3    84  ALA84      -0.1231
     10  CA        11.5370  141.8150   -9.8790 C.3    84  ALA84       0.1694
     11  C         11.2190  140.4470   -9.2690 C.2    84  ALA84       0.2592
     12  O         11.5130  139.4040   -9.8580 O.2    84  ALA84      -0.2718
     13  CB        12.8910  141.7800  -10.5960 C.3    84  ALA84       0.0304
     14  N         10.6120  140.4670   -8.0850 N.am   85  SER85      -0.1952
     15  CA        10.2400  139.2460   -7.3710 C.3    85  SER85       0.1924
     16  C          8.8850  139.3980   -6.6910 C.2    85  SER85       0.2314
     17  O          8.6470  138.8050   -5.6410 O.2    85  SER85      -0.2863
     18  CB        11.2790  138.9090   -6.2940 C.3    85  SER85       0.2116
     19  OG        12.4550  138.3590   -6.8570 O.3    85  SER85      -0.2180
     20  N          7.0630  136.2670   -5.8600 N.3    88  TRP88      -0.1241
     21  CA         7.7030  135.5800   -4.7320 C.3    88  TRP88       0.1605
     22  C          7.0600  136.1030   -3.4480 C.2    88  TRP88       0.2264
     23  O          6.7380  135.3330   -2.5420 O.2    88  TRP88      -0.2867
     24  CB         9.2050  135.8820   -4.6640 C.3    88  TRP88       0.0550
     25  CG        10.1050  134.9520   -5.4300 C.ar   88  TRP88       0.0003
     26  CD1       10.9980  135.3030   -6.4060 C.ar   88  TRP88       0.0946
     27  CD2       10.2660  133.5390   -5.2300 C.ar   88  TRP88       0.0152
     28  NE1       11.7090  134.1990   -6.8200 N.ar   88  TRP88      -0.2442
     29  CE2       11.2800  133.1060   -6.1150 C.ar   88  TRP88       0.0810
     30  CE3        9.6560  132.6000   -4.3850 C.ar   88  TRP88       0.0012
     31  CZ2       11.6990  131.7740   -6.1800 C.ar   88  TRP88       0.0191
     32  CZ3       10.0770  131.2680   -4.4500 C.ar   88  TRP88       0.0001
     33  CH2       11.0880  130.8730   -5.3440 C.ar   88  TRP88       0.0015
     34  N          5.3670  133.8020   -0.7310 N.3    92  TRP92      -0.1241
     35  CA         5.8980  133.7330    0.6300 C.3    92  TRP92       0.1605
     36  C          4.8460  134.1130    1.6560 C.2    92  TRP92       0.2264
     37  O          4.7000  133.4540    2.6860 O.2    92  TRP92      -0.2867
     38  CB         7.1000  134.6620    0.8090 C.3    92  TRP92       0.0550
     39  CG         8.3040  134.3120   -0.0060 C.ar   92  TRP92       0.0003
     40  CD1        8.7030  133.0670   -0.4030 C.ar   92  TRP92       0.0946
     41  CD2        9.2940  135.2270   -0.4890 C.ar   92  TRP92       0.0152
     42  NE1        9.8860  133.1530   -1.1060 N.ar   92  TRP92      -0.2442
     43  CE2       10.2690  134.4680   -1.1720 C.ar   92  TRP92       0.0810
     44  CE3        9.4510  136.6180   -0.4070 C.ar   92  TRP92       0.0012
     45  CZ2       11.3890  135.0560   -1.7740 C.ar   92  TRP92       0.0191
     46  CZ3       10.5640  137.2030   -1.0060 C.ar   92  TRP92       0.0001
     47  CH2       11.5170  136.4210   -1.6810 C.ar   92  TRP92       0.0015
     48  N         10.2670  134.6320  -16.1500 N.3   135  HIS135     -0.1241
     49  CA        11.4410  134.0530  -15.5060 C.3   135  HIS135      0.1621
     50  C         10.9120  132.8650  -14.7080 C.2   135  HIS135      0.2264
     51  O          9.8380  132.9470  -14.1120 O.2   135  HIS135     -0.2867
     52  CB        12.0510  135.1220  -14.5960 C.3   135  HIS135      0.0745
     53  CG        13.3750  134.7620  -13.9980 C.ar  135  HIS135      0.0817
     54  ND1       13.5250  133.7700  -13.0510 N.ar  135  HIS135     -0.2268
     55  CD2       14.5930  135.3380  -14.1350 C.ar  135  HIS135      0.1154
     56  CE1       14.7760  133.7580  -12.6250 C.ar  135  HIS135      0.1986
     57  NE2       15.4450  134.7010  -13.2660 N.ar  135  HIS135     -0.2212
     58  N         11.7130  131.6310  -11.8430 N.3   137  ALA137     -0.1231
     59  CA        11.5500  131.8200  -10.4000 C.3   137  ALA137      0.1679
     60  C         10.1800  132.4320  -10.0990 C.2   137  ALA137      0.2434
     61  O          9.3960  131.8540   -9.3390 O.2   137  ALA137     -0.2733
     62  CB        12.6830  132.6860   -9.8370 C.3   137  ALA137      0.0304
     63  N          9.8660  133.6060  -10.6810 N.am  138  PRO138     -0.2729
     64  CA         8.5430  134.1690  -10.3930 C.3   138  PRO138      0.1401
     65  C          7.4180  133.3070  -10.9850 C.2   138  PRO138      0.2269
     66  O          6.2760  133.3630  -10.5270 O.2   138  PRO138     -0.2865
     67  CB         8.6140  135.5790  -10.9950 C.3   138  PRO138      0.0296
     68  CG         9.6910  135.4780  -12.0370 C.3   138  PRO138      0.0237
     69  CD        10.7180  134.5890  -11.3720 C.3   138  PRO138      0.0939
     70  N         20.8260  132.5950  -16.9340 N.3   184  GLU184     -0.1245
     71  CA        21.7060  131.5980  -16.3350 C.3   184  GLU184      0.1567
     72  C         21.0980  130.2120  -16.1740 C.2   184  GLU184      0.2260
     73  O         19.8750  130.0380  -16.1640 O.2   184  GLU184     -0.2867
     74  CB        22.1950  132.0860  -14.9590 C.3   184  GLU184      0.0388
     75  CG        21.1530  131.9860  -13.8310 C.3   184  GLU184      0.1160
     76  CD        20.2580  133.2090  -13.7030 C.2   184  GLU184      0.3649
     77  OE1       20.1400  133.9850  -14.6760 O.co2 184  GLU184     -0.2457
     78  OE2       19.6570  133.3850  -12.6210 O.co2 184  GLU184     -0.2457
     79  N         18.0370  125.2180  -10.0970 N.3   188  ARG188     -0.1245
     80  CA        16.7780  125.8620   -9.7250 C.3   188  ARG188      0.1563
     81  C         15.7940  125.7560  -10.8900 C.2   188  ARG188      0.2260
     82  O         14.6030  125.5460  -10.6910 O.2   188  ARG188     -0.2867
     83  CB        16.9740  127.3520   -9.4330 C.3   188  ARG188      0.0307
     84  CG        17.6340  127.7030   -8.1110 C.3   188  ARG188      0.0489
     85  CD        17.8660  129.2160   -8.0660 C.3   188  ARG188      0.2205
     86  NE        18.6640  129.6420   -9.2160 N.pl3 188  ARG188     -0.0865
     87  CZ        18.5790  130.8330   -9.8020 C.cat 188  ARG188      0.5346
     88  NH1       17.7280  131.7490   -9.3550 N.pl3 188  ARG188      0.1354
     89  NH2       19.3320  131.0970  -10.8620 N.pl3 188  ARG188      0.1354
     90  N         20.9940  128.8890    9.7210 N.3   283  ASP283     -0.1239
     91  CA        20.0960  129.8860    9.1410 C.3   283  ASP283      0.1674
     92  C         18.6940  129.2950    9.1130 C.2   283  ASP283      0.2266
     93  O         18.4780  128.2230    8.5520 O.2   283  ASP283     -0.2867
     94  CB        20.5460  130.2460    7.7180 C.3   283  ASP283      0.1410
     95  CG        19.6330  131.2700    7.0400 C.2   283  ASP283      0.3668
     96  OD1       18.4800  131.4620    7.4850 O.co2 283  ASP283     -0.2456
     97  OD2       20.0710  131.8700    6.0350 O.co2 283  ASP283     -0.2456
     98  N         16.0840  129.7300    7.3450 N.3   285  CYS285     -0.1221
     99  CA        15.4340  129.3350    6.1010 C.3   285  CYS285      0.1808
    100  C         15.8090  127.9260    5.6600 C.2   285  CYS285      0.2601
    101  O         15.0380  127.2690    4.9600 O.2   285  CYS285     -0.2717
    102  CB        15.7180  130.3430    4.9820 C.3   285  CYS285      0.0970
    103  SG        17.4140  130.4280    4.3920 S.3   285  CYS285     -0.0800
    104  N         16.9820  127.4520    6.0720 N.am  286  TYR286     -0.1976
    105  CA        17.3820  126.0990    5.7070 C.3   286  TYR286      0.1639
    106  C         16.5850  125.0690    6.5010 C.2   286  TYR286      0.2290
    107  O         16.7350  123.8600    6.3070 O.2   286  TYR286     -0.2864
    108  CB        18.8960  125.9060    5.8770 C.3   286  TYR286      0.0560
    109  CG        19.6660  126.6310    4.7990 C.ar  286  TYR286     -0.0198
    110  CD1       20.4060  127.7750    5.0870 C.ar  286  TYR286     -0.0009
    111  CD2       19.5750  126.2230    3.4680 C.ar  286  TYR286     -0.0009
    112  CE1       21.0270  128.5020    4.0740 C.ar  286  TYR286      0.0417
    113  CE2       20.1910  126.9430    2.4510 C.ar  286  TYR286      0.0417
    114  CZ        20.9120  128.0820    2.7610 C.ar  286  TYR286      0.1957
    115  OH        21.5020  128.8200    1.7570 O.3   286  TYR286     -0.2866
    116  N         14.6900  124.1110    3.2730 N.3   289  TRP289     -0.1241
    117  CA        15.5020  123.5510    2.1970 C.3   289  TRP289      0.1605
    118  C         16.2090  122.2590    2.5820 C.2   289  TRP289      0.2264
    119  O         16.2630  121.3230    1.7840 O.2   289  TRP289     -0.2867
    120  CB        16.5250  124.5740    1.7010 C.3   289  TRP289      0.0550
    121  CG        15.9220  125.8860    1.2540 C.ar  289  TRP289      0.0003
    122  CD1       16.1810  127.1150    1.7800 C.ar  289  TRP289      0.0946
    123  CD2       14.9810  126.0980    0.1840 C.ar  289  TRP289      0.0152
    124  NE1       15.4650  128.0810    1.1140 N.ar  289  TRP289     -0.2442
    125  CE2       14.7210  127.4870    0.1300 C.ar  289  TRP289      0.0810
    126  CE3       14.3350  125.2530   -0.7300 C.ar  289  TRP289      0.0012
    127  CZ2       13.8420  128.0530   -0.8040 C.ar  289  TRP289      0.0191
    128  CZ3       13.4570  125.8180   -1.6640 C.ar  289  TRP289      0.0001
    129  CH2       13.2230  127.2080   -1.6900 C.ar  289  TRP289      0.0015
    130  N         16.5100  134.7010   10.0340 N.3   338  ASP338     -0.1239
    131  CA        17.6860  133.8550    9.8440 C.3   338  ASP338      0.1674
    132  C         18.2220  133.3500   11.1870 C.2   338  ASP338      0.2266
    133  O         18.2790  132.1450   11.4400 O.2   338  ASP338     -0.2867
    134  CB        18.7300  134.7110    9.1120 C.3   338  ASP338      0.1410
    135  CG        20.1000  134.0660    9.0160 C.2   338  ASP338      0.3668
    136  OD1       20.4090  133.1120    9.7540 O.co2 338  ASP338     -0.2456
    137  OD2       20.8910  134.5640    8.1870 O.co2 338  ASP338     -0.2456
    138  N         10.6230  136.2990    3.2760 N.3   347  TYR347     -0.1227
    139  CA        11.2510  135.0710    2.8120 C.3   347  TYR347      0.1736
    140  C         11.5030  134.1390    4.0000 C.2   347  TYR347      0.2595
    141  O         11.1170  132.9660    3.9700 O.2   347  TYR347     -0.2718
    142  CB        12.5660  135.3990    2.1020 C.3   347  TYR347      0.0548
    143  CG        13.4950  134.2190    1.9400 C.ar  347  TYR347     -0.0200
    144  CD1       13.1900  133.1710    1.0700 C.ar  347  TYR347     -0.0009
    145  CD2       14.6640  134.1380    2.6880 C.ar  347  TYR347     -0.0009
    146  CE1       14.0360  132.0710    0.9550 C.ar  347  TYR347      0.0417
    147  CE2       15.5130  133.0430    2.5830 C.ar  347  TYR347      0.0417
    148  CZ        15.1930  132.0160    1.7170 C.ar  347  TYR347      0.1957
    149  OH        16.0320  130.9330    1.6160 O.3   347  TYR347     -0.2866
    150  N         12.1400  134.6520    5.0520 N.am  348  HIS348     -0.1975
    151  CA        12.4060  133.8110    6.2130 C.3   348  HIS348      0.1656
    152  C         11.1390  133.4370    6.9660 C.2   348  HIS348      0.2291
    153  O         11.0750  132.3810    7.5930 O.2   348  HIS348     -0.2864
    154  CB        13.4140  134.4730    7.1580 C.3   348  HIS348      0.0771
    155  CG        14.8260  134.3880    6.6700 C.ar  348  HIS348      0.0820
    156  ND1       15.3970  135.3520    5.8670 N.ar  348  HIS348     -0.2267
    157  CD2       15.7480  133.4020    6.7860 C.ar  348  HIS348      0.1154
    158  CE1       16.6080  134.9630    5.5070 C.ar  348  HIS348      0.1986
    159  NE2       16.8450  133.7820    6.0490 N.ar  348  HIS348     -0.2212
    160  N          9.8660  130.3030    4.9370 N.3   351  TYR351     -0.1241
    161  CA        10.6170  129.0710    5.1200 C.3   351  TYR351      0.1605
    162  C         10.8590  128.5890    6.5390 C.2   351  TYR351      0.2264
    163  O         10.9840  127.3830    6.7580 O.2   351  TYR351     -0.2867
    164  CB        11.9030  129.1480    4.2860 C.3   351  TYR351      0.0534
    165  CG        11.5670  129.1720    2.8020 C.ar  351  TYR351     -0.0201
    166  CD1       11.5130  130.3750    2.0900 C.ar  351  TYR351     -0.0009
    167  CD2       11.1970  128.0020    2.1380 C.ar  351  TYR351     -0.0009
    168  CE1       11.0890  130.4030    0.7550 C.ar  351  TYR351      0.0417
    169  CE2       10.7760  128.0180    0.8080 C.ar  351  TYR351      0.0417
    170  CZ        10.7240  129.2230    0.1230 C.ar  351  TYR351      0.1957
    171  OH        10.3110  129.2510   -1.1930 O.3   351  TYR351     -0.2866
@<TRIPOS>BOND
     1    70    71    1
     2    71    72    1
     3    71    74    1
     4    72    73    2
     5    48    49    1
     6    49    50    1
     7    49    52    1
     8    74    75    1
     9    50    51    2
    10    77    76   ar
    11    52    53    1
    12    55    53   ar
    13    55    57   ar
    14    53    54   ar
    15    75    76    1
    16    76    78   ar
    17    57    56   ar
    18    54    56   ar
    19    68    69    1
    20    68    67    1
    21    58    59    1
    22    69    63    1
    23    67    64    1
    24    65    66    2
    25    65    64    1
    26    81    82    2
    27    81    80    1
    28    89    87    1
    29    63    64    1
    30    63    60   am
    31    13    10    1
    32    59    60    1
    33    59    62    1
    34    60    61    2
    35    79    80    1
    36    10    11    1
    37    10     9    1
    38    12    11    2
    39    87    88    1
    40    87    86    2
    41    80    83    1
    42    83    84    1
    43    11    14   am
    44    86    85    1
    45    84    85    1
    46    14    15    1
    47    15    16    1
    48    15    18    1
    49    19    18    1
    50    28    26   ar
    51    28    29   ar
    52    16    17    2
    53    26    25   ar
    54    31    29   ar
    55    31    33   ar
    56    29    27   ar
    57     4     3    2
    58    20    21    1
    59     3     2    1
    60    25    27   ar
    61    25    24    1
    62    33    32   ar
    63    27    30   ar
    64     2     1    1
    65     2     5    1
    66    21    24    1
    67    21    22    1
    68    32    30   ar
    69     5     6    1
    70     8     6    1
    71    22    23    2
    72     6     7    1
    73    45    47   ar
    74    45    43   ar
    75   129   128   ar
    76   129   127   ar
    77    47    46   ar
    78   128   126   ar
    79   171   170    1
    80    43    42   ar
    81    43    41   ar
    82    42    40   ar
    83    46    44   ar
    84   127   125   ar
    85    34    35    1
    86   126   123   ar
    87    41    44   ar
    88    41    39   ar
    89    40    39   ar
    90    39    38    1
    91   170   168   ar
    92   170   169   ar
    93   125   123   ar
    94   125   124   ar
    95   123   121   ar
    96    35    38    1
    97    35    36    1
    98   168   166   ar
    99   169   167   ar
   100   146   144   ar
   101   146   148   ar
   102   144   143   ar
   103   124   122   ar
   104   121   120    1
   105   121   122   ar
   106   149   148    1
   107    36    37    2
   108   120   117    1
   109   148   147   ar
   110   115   114    1
   111   119   118    2
   112   143   142    1
   113   143   145   ar
   114   166   165   ar
   115   142   139    1
   116   167   165   ar
   117   117   118    1
   118   117   116    1
   119   113   114   ar
   120   113   111   ar
   121   147   145   ar
   122   114   112   ar
   123   165   164    1
   124   139   138    1
   125   139   140    1
   126   111   109   ar
   127   141   140    2
   128   140   150   am
   129   112   110   ar
   130   164   161    1
   131   103   102    1
   132   109   110   ar
   133   109   108    1
   134   160   161    1
   135   101   100    2
   136   102    99    1
   137   150   151    1
   138   161   162    1
   139   158   156   ar
   140   158   159   ar
   141   100   104   am
   142   100    99    1
   143   105   108    1
   144   105   104    1
   145   105   106    1
   146   156   155   ar
   147    97    95   ar
   148   159   157   ar
   149    99    98    1
   150   151   152    1
   151   151   154    1
   152   107   106    2
   153   162   163    2
   154   155   157   ar
   155   155   154    1
   156   152   153    2
   157    95    96   ar
   158    95    94    1
   159    94    91    1
   160   137   135   ar
   161    93    92    2
   162   135   134    1
   163   135   136   ar
   164   134   131    1
   165    92    91    1
   166    91    90    1
   167   131   130    1
   168   131   132    1
   169   132   133    2
