@<TRIPOS>MOLECULE
tmp/2h6fB02.pdb
 154 153 0 0 0
SMALL
GASTEIGER

@<TRIPOS>ATOM
      1  N          7.0630  136.2670   -5.8600 N.3    88  TRP88      -0.1241
      2  CA         7.7030  135.5800   -4.7320 C.3    88  TRP88       0.1605
      3  C          7.0600  136.1030   -3.4480 C.2    88  TRP88       0.2264
      4  O          6.7380  135.3330   -2.5420 O.2    88  TRP88      -0.2867
      5  CB         9.2050  135.8820   -4.6640 C.3    88  TRP88       0.0550
      6  CG        10.1050  134.9520   -5.4300 C.ar   88  TRP88       0.0003
      7  CD1       10.9980  135.3030   -6.4060 C.ar   88  TRP88       0.0946
      8  CD2       10.2660  133.5390   -5.2300 C.ar   88  TRP88       0.0152
      9  NE1       11.7090  134.1990   -6.8200 N.ar   88  TRP88      -0.2442
     10  CE2       11.2800  133.1060   -6.1150 C.ar   88  TRP88       0.0810
     11  CE3        9.6560  132.6000   -4.3850 C.ar   88  TRP88       0.0012
     12  CZ2       11.6990  131.7740   -6.1800 C.ar   88  TRP88       0.0191
     13  CZ3       10.0770  131.2680   -4.4500 C.ar   88  TRP88       0.0001
     14  CH2       11.0880  130.8730   -5.3440 C.ar   88  TRP88       0.0015
     15  N         11.7130  131.6310  -11.8430 N.3   137  ALA137     -0.1245
     16  CA        11.5500  131.8200  -10.4000 C.3   137  ALA137      0.1562
     17  C         10.1800  132.4320  -10.0990 C.2   137  ALA137      0.2260
     18  O          9.3960  131.8540   -9.3390 O.2   137  ALA137     -0.2867
     19  CB        12.6830  132.6860   -9.8370 C.3   137  ALA137      0.0290
     20  N          7.4210  129.9600  -10.9500 N.3   140  TYR140     -0.1241
     21  CA         7.2310  128.9480   -9.9160 C.3   140  TYR140      0.1605
     22  C          6.3980  129.5280   -8.7690 C.2   140  TYR140      0.2264
     23  O          5.4520  128.8950   -8.2850 O.2   140  TYR140     -0.2867
     24  CB         8.5940  128.4960   -9.3820 C.3   140  TYR140      0.0534
     25  CG         8.5410  127.7680   -8.0530 C.ar  140  TYR140     -0.0201
     26  CD1        8.1710  126.4250   -7.9790 C.ar  140  TYR140     -0.0009
     27  CD2        8.8740  128.4270   -6.8670 C.ar  140  TYR140     -0.0009
     28  CE1        8.1430  125.7530   -6.7550 C.ar  140  TYR140      0.0417
     29  CE2        8.8460  127.7630   -5.6400 C.ar  140  TYR140      0.0417
     30  CZ         8.4840  126.4270   -5.5940 C.ar  140  TYR140      0.1957
     31  OH         8.4960  125.7620   -4.3890 O.3   140  TYR140     -0.2866
     32  N         18.0370  125.2180  -10.0970 N.3   188  ARG188     -0.1245
     33  CA        16.7780  125.8620   -9.7250 C.3   188  ARG188      0.1563
     34  C         15.7940  125.7560  -10.8900 C.2   188  ARG188      0.2260
     35  O         14.6030  125.5460  -10.6910 O.2   188  ARG188     -0.2867
     36  CB        16.9740  127.3520   -9.4330 C.3   188  ARG188      0.0307
     37  CG        17.6340  127.7030   -8.1110 C.3   188  ARG188      0.0489
     38  CD        17.8660  129.2160   -8.0660 C.3   188  ARG188      0.2205
     39  NE        18.6640  129.6420   -9.2160 N.pl3 188  ARG188     -0.0865
     40  CZ        18.5790  130.8330   -9.8020 C.cat 188  ARG188      0.5346
     41  NH1       17.7280  131.7490   -9.3550 N.pl3 188  ARG188      0.1354
     42  NH2       19.3320  131.0970  -10.8620 N.pl3 188  ARG188      0.1354
     43  N         13.8370  122.3880  -11.2230 N.3   191  TYR191     -0.1227
     44  CA        12.7790  122.2750  -10.2270 C.3   191  TYR191      0.1736
     45  C         11.6070  123.2070  -10.5380 C.2   191  TYR191      0.2595
     46  O         10.4500  122.8030  -10.4660 O.2   191  TYR191     -0.2718
     47  CB        13.3250  122.5900   -8.8330 C.3   191  TYR191      0.0548
     48  CG        12.2460  122.7010   -7.7790 C.ar  191  TYR191     -0.0200
     49  CD1       11.4290  121.6110   -7.4620 C.ar  191  TYR191     -0.0009
     50  CD2       12.0170  123.9080   -7.1210 C.ar  191  TYR191     -0.0009
     51  CE1       10.4050  121.7270   -6.5170 C.ar  191  TYR191      0.0417
     52  CE2       11.0010  124.0360   -6.1740 C.ar  191  TYR191      0.0417
     53  CZ        10.1990  122.9460   -5.8780 C.ar  191  TYR191      0.1957
     54  OH         9.1940  123.0880   -4.9510 O.3   191  TYR191     -0.2866
     55  N         11.9000  124.4580  -10.8810 N.am  192  CYS192     -0.1970
     56  CA        10.8310  125.3990  -11.1970 C.3   192  CYS192      0.1712
     57  C          9.9940  124.8670  -12.3540 C.2   192  CYS192      0.2296
     58  O          8.7640  124.9030  -12.3110 O.2   192  CYS192     -0.2864
     59  CB        11.4070  126.7760  -11.5570 C.3   192  CYS192      0.0983
     60  SG        12.0890  127.7030  -10.1420 S.3   192  CYS192     -0.0798
     61  N         24.9000  122.1880   -1.6990 N.3   234  HIS234     -0.1241
     62  CA        24.1800  123.2980   -1.0840 C.3   234  HIS234      0.1621
     63  C         22.7160  122.9220   -0.8240 C.2   234  HIS234      0.2264
     64  O         22.0500  122.3820   -1.7010 O.2   234  HIS234     -0.2867
     65  CB        24.2850  124.4880   -2.0480 C.3   234  HIS234      0.0745
     66  CG        23.6520  125.7450   -1.5520 C.ar  234  HIS234      0.0817
     67  ND1       22.2870  125.9120   -1.4790 N.ar  234  HIS234     -0.2268
     68  CD2       24.1990  126.9070   -1.1200 C.ar  234  HIS234      0.1154
     69  CE1       22.0190  127.1230   -1.0230 C.ar  234  HIS234      0.1986
     70  NE2       23.1610  127.7470   -0.7980 N.ar  234  HIS234     -0.2212
     71  N         19.8230  124.5650   -0.6740 N.3   236  GLY236     -0.1210
     72  CA        18.8080  125.0550   -1.5910 C.3   236  GLY236      0.1956
     73  C         18.8300  124.3160   -2.9160 C.2   236  GLY236      0.2611
     74  O         17.7870  123.8980   -3.4220 O.2   236  GLY236     -0.2717
     75  N         20.0200  124.1460   -3.4840 N.am  237  TYR237     -0.1976
     76  CA        20.1420  123.4470   -4.7560 C.3   237  TYR237      0.1639
     77  C         19.8360  121.9600   -4.6020 C.2   237  TYR237      0.2290
     78  O         19.3300  121.3280   -5.5280 O.2   237  TYR237     -0.2864
     79  CB        21.5470  123.6560   -5.3370 C.3   237  TYR237      0.0560
     80  CG        21.8010  125.0820   -5.7730 C.ar  237  TYR237     -0.0198
     81  CD1       22.9350  125.7670   -5.3490 C.ar  237  TYR237     -0.0009
     82  CD2       20.9050  125.7440   -6.6140 C.ar  237  TYR237     -0.0009
     83  CE1       23.1710  127.0820   -5.7510 C.ar  237  TYR237      0.0417
     84  CE2       21.1310  127.0560   -7.0220 C.ar  237  TYR237      0.0417
     85  CZ        22.2650  127.7160   -6.5850 C.ar  237  TYR237      0.1957
     86  OH        22.4950  129.0160   -6.9810 O.3   237  TYR237     -0.2866
     87  N         16.1020  121.5500   -4.6340 N.3   240  CYS240     -0.1235
     88  CA        15.6450  121.6690   -6.0180 C.3   240  CYS240      0.1677
     89  C         15.9020  120.3880   -6.8030 C.2   240  CYS240      0.2270
     90  O         15.0250  119.8920   -7.5150 O.2   240  CYS240     -0.2867
     91  CB        16.3490  122.8330   -6.7260 C.3   240  CYS240      0.0956
     92  SG        15.8060  124.4840   -6.2180 S.3   240  CYS240     -0.0801
     93  N         20.9940  128.8890    9.7210 N.3   283  ASP283     -0.1239
     94  CA        20.0960  129.8860    9.1410 C.3   283  ASP283      0.1674
     95  C         18.6940  129.2950    9.1130 C.2   283  ASP283      0.2266
     96  O         18.4780  128.2230    8.5520 O.2   283  ASP283     -0.2867
     97  CB        20.5460  130.2460    7.7180 C.3   283  ASP283      0.1410
     98  CG        19.6330  131.2700    7.0400 C.2   283  ASP283      0.3668
     99  OD1       18.4800  131.4620    7.4850 O.co2 283  ASP283     -0.2456
    100  OD2       20.0710  131.8700    6.0350 O.co2 283  ASP283     -0.2456
    101  N         16.0840  129.7300    7.3450 N.3   285  CYS285     -0.1221
    102  CA        15.4340  129.3350    6.1010 C.3   285  CYS285      0.1808
    103  C         15.8090  127.9260    5.6600 C.2   285  CYS285      0.2601
    104  O         15.0380  127.2690    4.9600 O.2   285  CYS285     -0.2717
    105  CB        15.7180  130.3430    4.9820 C.3   285  CYS285      0.0970
    106  SG        17.4140  130.4280    4.3920 S.3   285  CYS285     -0.0800
    107  N         16.9820  127.4520    6.0720 N.am  286  TYR286     -0.1976
    108  CA        17.3820  126.0990    5.7070 C.3   286  TYR286      0.1639
    109  C         16.5850  125.0690    6.5010 C.2   286  TYR286      0.2290
    110  O         16.7350  123.8600    6.3070 O.2   286  TYR286     -0.2864
    111  CB        18.8960  125.9060    5.8770 C.3   286  TYR286      0.0560
    112  CG        19.6660  126.6310    4.7990 C.ar  286  TYR286     -0.0198
    113  CD1       20.4060  127.7750    5.0870 C.ar  286  TYR286     -0.0009
    114  CD2       19.5750  126.2230    3.4680 C.ar  286  TYR286     -0.0009
    115  CE1       21.0270  128.5020    4.0740 C.ar  286  TYR286      0.0417
    116  CE2       20.1910  126.9430    2.4510 C.ar  286  TYR286      0.0417
    117  CZ        20.9120  128.0820    2.7610 C.ar  286  TYR286      0.1957
    118  OH        21.5020  128.8200    1.7570 O.3   286  TYR286     -0.2866
    119  N         14.6900  124.1110    3.2730 N.3   289  TRP289     -0.1241
    120  CA        15.5020  123.5510    2.1970 C.3   289  TRP289      0.1605
    121  C         16.2090  122.2590    2.5820 C.2   289  TRP289      0.2264
    122  O         16.2630  121.3230    1.7840 O.2   289  TRP289     -0.2867
    123  CB        16.5250  124.5740    1.7010 C.3   289  TRP289      0.0550
    124  CG        15.9220  125.8860    1.2540 C.ar  289  TRP289      0.0003
    125  CD1       16.1810  127.1150    1.7800 C.ar  289  TRP289      0.0946
    126  CD2       14.9810  126.0980    0.1840 C.ar  289  TRP289      0.0152
    127  NE1       15.4650  128.0810    1.1140 N.ar  289  TRP289     -0.2442
    128  CE2       14.7210  127.4870    0.1300 C.ar  289  TRP289      0.0810
    129  CE3       14.3350  125.2530   -0.7300 C.ar  289  TRP289      0.0012
    130  CZ2       13.8420  128.0530   -0.8040 C.ar  289  TRP289      0.0191
    131  CZ3       13.4570  125.8180   -1.6640 C.ar  289  TRP289      0.0001
    132  CH2       13.2230  127.2080   -1.6900 C.ar  289  TRP289      0.0015
    133  N         10.6230  136.2990    3.2760 N.3   347  TYR347     -0.1227
    134  CA        11.2510  135.0710    2.8120 C.3   347  TYR347      0.1736
    135  C         11.5030  134.1390    4.0000 C.2   347  TYR347      0.2595
    136  O         11.1170  132.9660    3.9700 O.2   347  TYR347     -0.2718
    137  CB        12.5660  135.3990    2.1020 C.3   347  TYR347      0.0548
    138  CG        13.4950  134.2190    1.9400 C.ar  347  TYR347     -0.0200
    139  CD1       13.1900  133.1710    1.0700 C.ar  347  TYR347     -0.0009
    140  CD2       14.6640  134.1380    2.6880 C.ar  347  TYR347     -0.0009
    141  CE1       14.0360  132.0710    0.9550 C.ar  347  TYR347      0.0417
    142  CE2       15.5130  133.0430    2.5830 C.ar  347  TYR347      0.0417
    143  CZ        15.1930  132.0160    1.7170 C.ar  347  TYR347      0.1957
    144  OH        16.0320  130.9330    1.6160 O.3   347  TYR347     -0.2866
    145  N         12.1400  134.6520    5.0520 N.am  348  HIS348     -0.1975
    146  CA        12.4060  133.8110    6.2130 C.3   348  HIS348      0.1656
    147  C         11.1390  133.4370    6.9660 C.2   348  HIS348      0.2291
    148  O         11.0750  132.3810    7.5930 O.2   348  HIS348     -0.2864
    149  CB        13.4140  134.4730    7.1580 C.3   348  HIS348      0.0771
    150  CG        14.8260  134.3880    6.6700 C.ar  348  HIS348      0.0820
    151  ND1       15.3970  135.3520    5.8670 N.ar  348  HIS348     -0.2267
    152  CD2       15.7480  133.4020    6.7860 C.ar  348  HIS348      0.1154
    153  CE1       16.6080  134.9630    5.5070 C.ar  348  HIS348      0.1986
    154  NE2       16.8450  133.7820    6.0490 N.ar  348  HIS348     -0.2212
@<TRIPOS>BOND
     1    57    58    2
     2    57    56    1
     3    15    16    1
     4    59    56    1
     5    59    60    1
     6    43    44    1
     7    56    55    1
     8    20    21    1
     9    34    35    2
    10    34    33    1
    11    55    45   am
    12    42    40    1
    13    45    46    2
    14    45    44    1
    15    16    17    1
    16    16    19    1
    17    44    47    1
    18    17    18    2
    19    32    33    1
    20    21    24    1
    21    21    22    1
    22    40    41    1
    23    40    39    2
    24    33    36    1
    25    36    37    1
    26    24    25    1
    27    39    38    1
    28    47    48    1
    29    22    23    2
    30    37    38    1
    31    25    26   ar
    32    25    27   ar
    33    26    28   ar
    34    48    49   ar
    35    48    50   ar
    36    90    89    2
    37    49    51   ar
    38    50    52   ar
    39    84    82   ar
    40    84    85   ar
    41    86    85    1
    42    27    29   ar
    43     9     7   ar
    44     9    10   ar
    45    89    88    1
    46    28    30   ar
    47    91    92    1
    48    91    88    1
    49    82    80   ar
    50    85    83   ar
    51    51    53   ar
    52     7     6   ar
    53    12    10   ar
    54    12    14   ar
    55    52    53   ar
    56    10     8   ar
    57    88    87    1
    58    53    54    1
    59     1     2    1
    60    80    81   ar
    61    80    79    1
    62    83    81   ar
    63    29    30   ar
    64    30    31    1
    65    78    77    2
    66     6     8   ar
    67     6     5    1
    68    14    13   ar
    69    79    76    1
    70     8    11   ar
    71    76    77    1
    72    76    75    1
    73     2     5    1
    74     2     3    1
    75    13    11   ar
    76    75    73   am
    77     3     4    2
    78    74    73    2
    79    73    72    1
    80    65    66    1
    81    65    62    1
    82    64    63    2
    83    61    62    1
    84   132   131   ar
    85   132   130   ar
    86   131   129   ar
    87    72    71    1
    88    66    67   ar
    89    66    68   ar
    90    67    69   ar
    91    68    70   ar
    92    62    63    1
    93    69    70   ar
    94   130   128   ar
    95   129   126   ar
    96   128   126   ar
    97   128   127   ar
    98   126   124   ar
    99   141   139   ar
   100   141   143   ar
   101   139   138   ar
   102   127   125   ar
   103   124   123    1
   104   124   125   ar
   105   144   143    1
   106   123   120    1
   107   143   142   ar
   108   118   117    1
   109   122   121    2
   110   138   137    1
   111   138   140   ar
   112   137   134    1
   113   120   121    1
   114   120   119    1
   115   116   117   ar
   116   116   114   ar
   117   142   140   ar
   118   117   115   ar
   119   134   133    1
   120   134   135    1
   121   114   112   ar
   122   136   135    2
   123   135   145   am
   124   115   113   ar
   125   106   105    1
   126   112   113   ar
   127   112   111    1
   128   104   103    2
   129   105   102    1
   130   145   146    1
   131   153   151   ar
   132   153   154   ar
   133   103   107   am
   134   103   102    1
   135   108   111    1
   136   108   107    1
   137   108   109    1
   138   151   150   ar
   139   100    98   ar
   140   154   152   ar
   141   102   101    1
   142   146   147    1
   143   146   149    1
   144   110   109    2
   145   150   152   ar
   146   150   149    1
   147   147   148    2
   148    98    99   ar
   149    98    97    1
   150    97    94    1
   151    96    95    2
   152    95    94    1
   153    94    93    1
