@<TRIPOS>MOLECULE
tmp/2h6fB01.pdb
 79 76 0 0 0
SMALL
GASTEIGER

@<TRIPOS>ATOM
      1  N         21.5530  114.5090  -11.7670 N.3   216  ALA216     -0.1231
      2  CA        22.4330  113.5520  -11.1040 C.3   216  ALA216      0.1694
      3  C         23.8930  113.9990  -11.1790 C.2   216  ALA216      0.2591
      4  O         24.6700  113.7690  -10.2520 O.2   216  ALA216     -0.2718
      5  CB        22.2700  112.1620  -11.7310 C.3   216  ALA216      0.0304
      6  N         24.2660  114.6370  -12.2860 N.am  217  ARG217     -0.1980
      7  CA        25.6300  115.1250  -12.4590 C.3   217  ARG217      0.1597
      8  C         25.9390  116.2250  -11.4440 C.2   217  ARG217      0.2287
      9  O         27.1070  116.5130  -11.1680 O.2   217  ARG217     -0.2864
     10  CB        25.8320  115.6730  -13.8750 C.3   217  ARG217      0.0334
     11  CG        25.9430  114.6170  -14.9680 C.3   217  ARG217      0.0492
     12  CD        26.1000  115.2920  -16.3280 C.3   217  ARG217      0.2205
     13  NE        27.2450  116.1990  -16.3480 N.pl3 217  ARG217     -0.0865
     14  CZ        27.3510  117.2590  -17.1430 C.cat 217  ARG217      0.5346
     15  NH1       26.3770  117.5560  -17.9940 N.pl3 217  ARG217      0.1354
     16  NH2       28.4300  118.0260  -17.0870 N.pl3 217  ARG217      0.1354
     17  N         25.0720  116.0950   -8.2730 N.3   219  GLN219     -0.1231
     18  CA        25.3810  115.5260   -6.9630 C.3   219  GLN219      0.1698
     19  C         26.9010  115.4090   -6.9520 C.2   219  GLN219      0.2592
     20  O         27.4870  114.9620   -7.9360 O.2   219  GLN219     -0.2718
     21  CB        24.7390  114.1440   -6.7880 C.3   219  GLN219      0.0381
     22  CG        25.1290  113.4640   -5.4730 C.3   219  GLN219      0.0905
     23  CD        24.3510  112.1890   -5.2060 C.2   219  GLN219      0.2608
     24  OE1       24.1090  111.3920   -6.1120 O.2   219  GLN219     -0.2717
     25  NE2       23.9690  111.9820   -3.9480 N.am  219  GLN219     -0.0878
     26  N         27.5460  115.8210   -5.8660 N.am  220  ASN220     -0.1960
     27  CA        29.0040  115.7600   -5.8220 C.3   220  ASN220      0.1819
     28  C         29.5530  114.8060   -4.7680 C.2   220  ASN220      0.2621
     29  O         28.8010  114.0480   -4.1510 O.2   220  ASN220     -0.2715
     30  CB        29.5870  117.1710   -5.6380 C.3   220  ASN220      0.1195
     31  CG        29.5420  117.6510   -4.2000 C.2   220  ASN220      0.2630
     32  OD1       28.8200  117.1040   -3.3690 O.2   220  ASN220     -0.2716
     33  ND2       30.3140  118.6950   -3.9030 N.am  220  ASN220     -0.0877
     34  N         30.8690  114.8500   -4.5780 N.am  221  TRP221     -0.1974
     35  CA        31.5600  113.9820   -3.6250 C.3   221  TRP221      0.1640
     36  C         31.0200  114.0470   -2.2040 C.2   221  TRP221      0.2290
     37  O         31.1670  113.0980   -1.4380 O.2   221  TRP221     -0.2864
     38  CB        33.0630  114.3060   -3.6010 C.3   221  TRP221      0.0576
     39  CG        33.3700  115.7400   -3.2700 C.ar  221  TRP221      0.0006
     40  CD1       33.3620  116.8000   -4.1310 C.ar  221  TRP221      0.0946
     41  CD2       33.6760  116.2780   -1.9740 C.ar  221  TRP221      0.0152
     42  NE1       33.6420  117.9640   -3.4540 N.ar  221  TRP221     -0.2442
     43  CE2       33.8380  117.6740   -2.1290 C.ar  221  TRP221      0.0810
     44  CE3       33.8260  115.7190   -0.6960 C.ar  221  TRP221      0.0012
     45  CZ2       34.1420  118.5200   -1.0570 C.ar  221  TRP221      0.0191
     46  CZ3       34.1290  116.5620    0.3730 C.ar  221  TRP221      0.0001
     47  CH2       34.2830  117.9490    0.1840 C.ar  221  TRP221      0.0015
     48  N         27.8480  114.2950   -1.3420 N.3   223  GLY223     -0.1225
     49  CA        26.5900  113.5790   -1.2250 C.3   223  GLY223      0.1811
     50  C         25.4310  114.5030   -1.5500 C.2   223  GLY223      0.2280
     51  O         24.3760  114.0580   -1.9920 O.2   223  GLY223     -0.2866
     52  N         18.2480  107.9220   -9.6460 N.3   253  SER253     -0.1202
     53  CA        19.3770  108.3820  -10.4440 C.3   253  SER253      0.2020
     54  C         20.4920  108.8800   -9.5250 C.2   253  SER253      0.2619
     55  O         21.6420  109.0150   -9.9450 O.2   253  SER253     -0.2717
     56  CB        18.9400  109.5120  -11.3820 C.3   253  SER253      0.2103
     57  OG        18.0260  109.0440  -12.3600 O.3   253  SER253     -0.2182
     58  N         20.1410  109.1450   -8.2690 N.am  254  LEU254     -0.1965
     59  CA        21.0970  109.6380   -7.2800 C.3   254  LEU254      0.1728
     60  C         21.5710  108.5550   -6.3320 C.2   254  LEU254      0.2616
     61  O         20.9700  107.4860   -6.2250 O.2   254  LEU254     -0.2715
     62  CB        20.4640  110.7270   -6.4110 C.3   254  LEU254      0.0311
     63  CG        19.8730  111.9850   -7.0370 C.3   254  LEU254      0.0022
     64  CD1       19.1090  112.7600   -5.9690 C.3   254  LEU254      0.0001
     65  CD2       20.9760  112.8400   -7.6340 C.3   254  LEU254      0.0001
     66  N         22.6630  108.8530   -5.6410 N.am  255  ASN255     -0.1972
     67  CA        23.1860  107.9590   -4.6230 C.3   255  ASN255      0.1688
     68  C         22.4300  108.4870   -3.4060 C.2   255  ASN255      0.2292
     69  O         22.8070  109.5080   -2.8310 O.2   255  ASN255     -0.2864
     70  CB        24.6910  108.1690   -4.4430 C.3   255  ASN255      0.1181
     71  CG        25.2680  107.3490   -3.2960 C.2   255  ASN255      0.2629
     72  OD1       24.5560  106.9780   -2.3630 O.2   255  ASN255     -0.2716
     73  ND2       26.5710  107.0850   -3.3530 N.am  255  ASN255     -0.0877
     74  N         24.5820  108.5450    0.1230 N.3   258  SER258     -0.1217
     75  CA        25.4670  109.6740    0.3850 C.3   258  SER258      0.1889
     76  C         24.6810  110.9710    0.5840 C.2   258  SER258      0.2288
     77  O         25.1060  111.8570    1.3260 O.2   258  SER258     -0.2866
     78  CB        26.4870  109.8380   -0.7500 C.3   258  SER258      0.2089
     79  OG        25.8600  110.1590   -1.9770 O.3   258  SER258     -0.2183
@<TRIPOS>BOND
     1    15    14    1
     2    14    16    1
     3    14    13    2
     4    13    12    1
     5    12    11    1
     6    11    10    1
     7    10     7    1
     8     7     6    1
     9     7     8    1
    10    57    56    1
    11     6     3   am
    12     1     2    1
    13     5     2    1
    14     8     9    2
    15    56    53    1
    16     3     2    1
    17     3     4    2
    18    53    52    1
    19    53    54    1
    20    55    54    2
    21    54    58   am
    22    17    18    1
    23    58    59    1
    24    20    19    2
    25    65    63    1
    26    59    62    1
    27    59    60    1
    28    63    62    1
    29    63    64    1
    30    18    19    1
    31    18    21    1
    32    19    26   am
    33    21    22    1
    34    60    61    2
    35    60    66   am
    36    24    23    2
    37    26    27    1
    38    27    30    1
    39    27    28    1
    40    66    67    1
    41    30    31    1
    42    22    23    1
    43    23    25   am
    44    28    34   am
    45    28    29    2
    46    67    70    1
    47    67    68    1
    48    34    35    1
    49    70    71    1
    50    31    33   am
    51    31    32    2
    52    40    42   ar
    53    40    39   ar
    54    35    38    1
    55    35    36    1
    56    38    39    1
    57    42    43   ar
    58    68    69    2
    59    73    71   am
    60    71    72    2
    61    39    41   ar
    62    36    37    2
    63    43    41   ar
    64    43    45   ar
    65    51    50    2
    66    79    78    1
    67    41    44   ar
    68    50    49    1
    69    48    49    1
    70    45    47   ar
    71    78    75    1
    72    44    46   ar
    73    74    75    1
    74    47    46   ar
    75    75    76    1
    76    76    77    2
