@<TRIPOS>MOLECULE
tmp/2h6hB00.pdb
 197 193 0 0 0
SMALL
GASTEIGER

@<TRIPOS>ATOM
      1  N         13.3230  144.1700   -4.4010 N.3    82  LEU82      -0.1245
      2  CA        12.5350  143.0020   -4.7800 C.3    82  LEU82       0.1561
      3  C         11.4480  143.3650   -5.7890 C.2    82  LEU82       0.2260
      4  O         10.4600  142.6520   -5.9380 O.2    82  LEU82      -0.2867
      5  CB        11.9190  142.3560   -3.5310 C.3    82  LEU82       0.0270
      6  CG        12.9200  141.5620   -2.6810 C.3    82  LEU82       0.0019
      7  CD1       12.2800  141.1400   -1.3680 C.3    82  LEU82       0.0001
      8  CD2       13.3890  140.3390   -3.4670 C.3    82  LEU82       0.0001
      9  N         11.5450  143.0540   -8.7970 N.3    84  ALA84      -0.1231
     10  CA        11.5360  142.0540   -9.8630 C.3    84  ALA84       0.1694
     11  C         11.2320  140.6810   -9.2530 C.2    84  ALA84       0.2592
     12  O         11.5450  139.6390   -9.8370 O.2    84  ALA84      -0.2718
     13  CB        12.8860  142.0320  -10.5830 C.3    84  ALA84       0.0304
     14  N         10.6200  140.6970   -8.0720 N.am   85  SER85      -0.1952
     15  CA        10.2540  139.4740   -7.3570 C.3    85  SER85       0.1924
     16  C          8.9080  139.6320   -6.6620 C.2    85  SER85       0.2314
     17  O          8.6890  139.0580   -5.5970 O.2    85  SER85      -0.2863
     18  CB        11.3050  139.1320   -6.2930 C.3    85  SER85       0.2116
     19  OG        12.4800  138.5910   -6.8670 O.3    85  SER85      -0.2180
     20  N          7.0800  136.5120   -5.8080 N.3    88  TRP88      -0.1241
     21  CA         7.7150  135.8290   -4.6760 C.3    88  TRP88       0.1605
     22  C          7.0630  136.3430   -3.3970 C.2    88  TRP88       0.2264
     23  O          6.7530  135.5700   -2.4890 O.2    88  TRP88      -0.2867
     24  CB         9.2130  136.1410   -4.6020 C.3    88  TRP88       0.0550
     25  CG        10.1140  135.1970   -5.3520 C.ar   88  TRP88       0.0003
     26  CD1       11.0390  135.5320   -6.3010 C.ar   88  TRP88       0.0946
     27  CD2       10.2310  133.7770   -5.1620 C.ar   88  TRP88       0.0152
     28  NE1       11.7270  134.4120   -6.7120 N.ar   88  TRP88      -0.2442
     29  CE2       11.2500  133.3220   -6.0280 C.ar   88  TRP88       0.0810
     30  CE3        9.5740  132.8480   -4.3410 C.ar   88  TRP88       0.0012
     31  CZ2       11.6310  131.9770   -6.0980 C.ar   88  TRP88       0.0191
     32  CZ3        9.9550  131.5070   -4.4100 C.ar   88  TRP88       0.0001
     33  CH2       10.9760  131.0880   -5.2840 C.ar   88  TRP88       0.0015
     34  N          5.3720  134.0010   -0.6760 N.3    92  TRP92      -0.1241
     35  CA         5.8880  133.9620    0.6900 C.3    92  TRP92       0.1605
     36  C          4.8200  134.3430    1.7050 C.2    92  TRP92       0.2264
     37  O          4.6750  133.7040    2.7470 O.2    92  TRP92      -0.2867
     38  CB         7.0690  134.9200    0.8660 C.3    92  TRP92       0.0550
     39  CG         8.2840  134.5940    0.0570 C.ar   92  TRP92       0.0003
     40  CD1        8.7030  133.3590   -0.3500 C.ar   92  TRP92       0.0946
     41  CD2        9.2700  135.5250   -0.4000 C.ar   92  TRP92       0.0152
     42  NE1        9.8940  133.4660   -1.0330 N.ar   92  TRP92      -0.2442
     43  CE2       10.2620  134.7850   -1.0810 C.ar   92  TRP92       0.0810
     44  CE3        9.4100  136.9150   -0.3010 C.ar   92  TRP92       0.0012
     45  CZ2       11.3840  135.3910   -1.6620 C.ar   92  TRP92       0.0191
     46  CZ3       10.5280  137.5190   -0.8790 C.ar   92  TRP92       0.0001
     47  CH2       11.4980  136.7540   -1.5520 C.ar   92  TRP92       0.0015
     48  N         10.2610  134.8180  -16.1030 N.3   135  HIS135     -0.1241
     49  CA        11.4350  134.2360  -15.4560 C.3   135  HIS135      0.1621
     50  C         10.9050  133.0530  -14.6510 C.2   135  HIS135      0.2264
     51  O          9.8300  133.1420  -14.0520 O.2   135  HIS135     -0.2867
     52  CB        12.0530  135.3060  -14.5500 C.3   135  HIS135      0.0745
     53  CG        13.3740  134.9380  -13.9460 C.ar  135  HIS135      0.0817
     54  ND1       13.5180  133.9350  -13.0120 N.ar  135  HIS135     -0.2268
     55  CD2       14.5930  135.5170  -14.0630 C.ar  135  HIS135      0.1154
     56  CE1       14.7650  133.9170  -12.5750 C.ar  135  HIS135      0.1986
     57  NE2       15.4390  134.8690  -13.1960 N.ar  135  HIS135     -0.2212
     58  N         11.7110  131.8220  -11.7780 N.3   137  ALA137     -0.1231
     59  CA        11.5370  132.0300  -10.3410 C.3   137  ALA137      0.1679
     60  C         10.1660  132.6440  -10.0590 C.2   137  ALA137      0.2434
     61  O          9.3730  132.0770   -9.3080 O.2   137  ALA137     -0.2733
     62  CB        12.6650  132.9090   -9.7790 C.3   137  ALA137      0.0304
     63  N          9.8640  133.8190  -10.6480 N.am  138  PRO138     -0.2729
     64  CA         8.5340  134.3690  -10.3660 C.3   138  PRO138      0.1401
     65  C          7.4150  133.5010  -10.9550 C.2   138  PRO138      0.2269
     66  O          6.2750  133.5510  -10.4930 O.2   138  PRO138     -0.2865
     67  CB         8.5930  135.7790  -10.9710 C.3   138  PRO138      0.0296
     68  CG         9.6730  135.6830  -12.0160 C.3   138  PRO138      0.0237
     69  CD        10.7070  134.8050  -11.3500 C.3   138  PRO138      0.0939
     70  N         20.7920  132.7770  -16.8920 N.3   184  GLU184     -0.1245
     71  CA        21.6770  131.7810  -16.2980 C.3   184  GLU184      0.1567
     72  C         21.0680  130.3940  -16.1410 C.2   184  GLU184      0.2260
     73  O         19.8470  130.2260  -16.1230 O.2   184  GLU184     -0.2867
     74  CB        22.1630  132.2600  -14.9190 C.3   184  GLU184      0.0388
     75  CG        21.1210  132.1520  -13.7950 C.3   184  GLU184      0.1160
     76  CD        20.2290  133.3790  -13.6590 C.2   184  GLU184      0.3649
     77  OE1       20.0880  134.1410  -14.6420 O.co2 184  GLU184     -0.2457
     78  OE2       19.6520  133.5680  -12.5650 O.co2 184  GLU184     -0.2457
     79  N         18.0210  125.3810  -10.0560 N.3   188  ARG188     -0.1245
     80  CA        16.7640  126.0260   -9.6760 C.3   188  ARG188      0.1563
     81  C         15.7680  125.9210  -10.8300 C.2   188  ARG188      0.2260
     82  O         14.5810  125.6990  -10.6160 O.2   188  ARG188     -0.2867
     83  CB        16.9680  127.5120   -9.3870 C.3   188  ARG188      0.0307
     84  CG        17.6780  127.8570   -8.0990 C.3   188  ARG188      0.0489
     85  CD        17.8910  129.3730   -8.0510 C.3   188  ARG188      0.2205
     86  NE        18.6800  129.8100   -9.2010 N.pl3 188  ARG188     -0.0865
     87  CZ        18.6010  131.0130   -9.7630 C.cat 188  ARG188      0.5346
     88  NH1       17.7650  131.9300   -9.2850 N.pl3 188  ARG188      0.1354
     89  NH2       19.3440  131.2900  -10.8260 N.pl3 188  ARG188      0.1354
     90  N         20.9950  129.0690    9.5940 N.3   283  ASP283     -0.1239
     91  CA        20.0950  130.0580    9.0090 C.3   283  ASP283      0.1674
     92  C         18.6970  129.4600    9.0130 C.2   283  ASP283      0.2266
     93  O         18.4780  128.3690    8.4870 O.2   283  ASP283     -0.2867
     94  CB        20.5140  130.3940    7.5720 C.3   283  ASP283      0.1410
     95  CG        19.6180  131.4450    6.9210 C.2   283  ASP283      0.3668
     96  OD1       18.4460  131.5950    7.3310 O.co2 283  ASP283     -0.2456
     97  OD2       20.0860  132.1100    5.9700 O.co2 283  ASP283     -0.2456
     98  N         16.0850  129.8800    7.2630 N.3   285  CYS285     -0.1221
     99  CA        15.4350  129.4920    6.0140 C.3   285  CYS285      0.1808
    100  C         15.8090  128.0790    5.5800 C.2   285  CYS285      0.2601
    101  O         15.0470  127.4320    4.8620 O.2   285  CYS285     -0.2717
    102  CB        15.7300  130.5020    4.8900 C.3   285  CYS285      0.0970
    103  SG        17.4270  130.5670    4.2880 S.3   285  CYS285     -0.0800
    104  N         16.9680  127.5890    6.0140 N.am  286  TYR286     -0.1976
    105  CA        17.3590  126.2290    5.6530 C.3   286  TYR286      0.1639
    106  C         16.5410  125.2190    6.4490 C.2   286  TYR286      0.2290
    107  O         16.6680  124.0100    6.2530 O.2   286  TYR286     -0.2864
    108  CB        18.8650  126.0120    5.8560 C.3   286  TYR286      0.0560
    109  CG        19.6790  126.7370    4.8060 C.ar  286  TYR286     -0.0198
    110  CD1       20.4760  127.8260    5.1450 C.ar  286  TYR286     -0.0009
    111  CD2       19.5920  126.3790    3.4600 C.ar  286  TYR286     -0.0009
    112  CE1       21.1620  128.5470    4.1680 C.ar  286  TYR286      0.0417
    113  CE2       20.2730  127.0920    2.4760 C.ar  286  TYR286      0.0417
    114  CZ        21.0530  128.1760    2.8390 C.ar  286  TYR286      0.1957
    115  OH        21.7120  128.9030    1.8690 O.3   286  TYR286     -0.2866
    116  N         14.6340  124.2450    3.2570 N.3   289  TRP289     -0.1241
    117  CA        15.4550  123.6840    2.1840 C.3   289  TRP289      0.1605
    118  C         16.1560  122.3880    2.5730 C.2   289  TRP289      0.2264
    119  O         16.1950  121.4440    1.7810 O.2   289  TRP289     -0.2867
    120  CB        16.4980  124.6980    1.7080 C.3   289  TRP289      0.0550
    121  CG        15.9240  126.0010    1.2170 C.ar  289  TRP289      0.0003
    122  CD1       16.2220  127.2430    1.6900 C.ar  289  TRP289      0.0946
    123  CD2       14.9950  126.1950    0.1370 C.ar  289  TRP289      0.0152
    124  NE1       15.5430  128.2000    0.9770 N.ar  289  TRP289     -0.2442
    125  CE2       14.7840  127.5880    0.0160 C.ar  289  TRP289      0.0810
    126  CE3       14.3250  125.3300   -0.7380 C.ar  289  TRP289      0.0012
    127  CZ2       13.9310  128.1390   -0.9490 C.ar  289  TRP289      0.0191
    128  CZ3       13.4710  125.8790   -1.7010 C.ar  289  TRP289      0.0001
    129  CH2       13.2850  127.2730   -1.7960 C.ar  289  TRP289      0.0015
    130  N         16.4590  134.9100   10.0100 N.3   338  ASP338     -0.1239
    131  CA        17.6190  134.0830    9.6900 C.3   338  ASP338      0.1674
    132  C         18.2030  133.5590   11.0090 C.2   338  ASP338      0.2266
    133  O         18.3090  132.3530   11.2260 O.2   338  ASP338     -0.2867
    134  CB        18.6200  134.9810    8.9470 C.3   338  ASP338      0.1410
    135  CG        19.9840  134.3490    8.7470 C.2   338  ASP338      0.3668
    136  OD1       20.3640  133.4130    9.4780 O.co2 338  ASP338     -0.2456
    137  OD2       20.6970  134.8350    7.8470 O.co2 338  ASP338     -0.2456
    138  N         19.7620  138.7410   15.7000 N.3   341  GLY341     -0.1210
    139  CA        20.6080  139.8190   15.2210 C.3   341  GLY341      0.1956
    140  C         20.2610  140.2510   13.8100 C.2   341  GLY341      0.2612
    141  O         20.6780  141.3200   13.3580 O.2   341  GLY341     -0.2717
    142  N         19.5030  139.4150   13.1060 N.am  342  LYS342     -0.1965
    143  CA        19.0940  139.7280   11.7450 C.3   342  LYS342      0.1728
    144  C         17.6880  140.3140   11.7710 C.2   342  LYS342      0.2616
    145  O         16.8980  140.0130   12.6660 O.2   342  LYS342     -0.2715
    146  CB        19.1040  138.4660   10.8760 C.3   342  LYS342      0.0311
    147  CG        20.4740  137.8190   10.7350 C.3   342  LYS342      0.0038
    148  CD        21.4580  138.7560   10.0510 C.3   342  LYS342      0.0206
    149  CE        22.8090  138.0880    9.8590 C.3   342  LYS342      0.1093
    150  NZ        23.7660  138.9780    9.1380 N.3   342  LYS342     -0.1314
    151  N         17.3760  141.1580   10.7970 N.am  343  SER343     -0.1950
    152  CA        16.0540  141.7590   10.7360 C.3   343  SER343      0.1924
    153  C         15.0940  140.8130   10.0280 C.2   343  SER343      0.2314
    154  O         15.5060  139.9660    9.2320 O.2   343  SER343     -0.2863
    155  CB        16.1040  143.0980    9.9990 C.3   343  SER343      0.2116
    156  OG        16.5030  142.9290    8.6540 O.3   343  SER343     -0.2180
    157  N         12.0450  139.4780    7.5240 N.3   345  ASP345     -0.1239
    158  CA        11.7210  139.6690    6.1190 C.3   345  ASP345      0.1674
    159  C         10.7090  138.5870    5.7740 C.2   345  ASP345      0.2266
    160  O         10.5960  137.5900    6.4860 O.2   345  ASP345     -0.2867
    161  CB        12.9670  139.6230    5.2170 C.3   345  ASP345      0.1410
    162  CG        13.7320  138.3240    5.3200 C.2   345  ASP345      0.3668
    163  OD1       13.1590  137.2720    4.9880 O.co2 345  ASP345     -0.2456
    164  OD2       14.9130  138.3640    5.7280 O.co2 345  ASP345     -0.2456
    165  N         10.6290  136.4940    3.2780 N.3   347  TYR347     -0.1227
    166  CA        11.2270  135.2520    2.8100 C.3   347  TYR347      0.1736
    167  C         11.4900  134.3200    3.9980 C.2   347  TYR347      0.2595
    168  O         11.1000  133.1540    3.9750 O.2   347  TYR347     -0.2718
    169  CB        12.5320  135.5430    2.0680 C.3   347  TYR347      0.0548
    170  CG        13.4330  134.3390    1.9180 C.ar  347  TYR347     -0.0200
    171  CD1       13.0440  133.2380    1.1550 C.ar  347  TYR347     -0.0009
    172  CD2       14.6650  134.2930    2.5630 C.ar  347  TYR347     -0.0009
    173  CE1       13.8680  132.1170    1.0410 C.ar  347  TYR347      0.0417
    174  CE2       15.4970  133.1740    2.4580 C.ar  347  TYR347      0.0417
    175  CZ        15.0910  132.0940    1.6940 C.ar  347  TYR347      0.1957
    176  OH        15.9080  130.9950    1.5800 O.3   347  TYR347     -0.2866
    177  N         12.1490  134.8280    5.0380 N.am  348  HIS348     -0.1975
    178  CA        12.4260  133.9880    6.1980 C.3   348  HIS348      0.1656
    179  C         11.1670  133.6270    6.9690 C.2   348  HIS348      0.2291
    180  O         11.0970  132.5780    7.6010 O.2   348  HIS348     -0.2864
    181  CB        13.4620  134.6400    7.1210 C.3   348  HIS348      0.0771
    182  CG        14.8560  134.5630    6.5840 C.ar  348  HIS348      0.0820
    183  ND1       15.3960  135.5350    5.7710 N.ar  348  HIS348     -0.2267
    184  CD2       15.7820  133.5770    6.6590 C.ar  348  HIS348      0.1154
    185  CE1       16.5950  135.1510    5.3670 C.ar  348  HIS348      0.1986
    186  NE2       16.8520  133.9650    5.8910 N.ar  348  HIS348     -0.2212
    187  N          9.8460  130.5380    4.9380 N.3   351  PHE351     -0.1241
    188  CA        10.5990  129.3150    5.1180 C.3   351  PHE351      0.1605
    189  C         10.8500  128.8090    6.5180 C.2   351  PHE351      0.2264
    190  O         10.9800  127.6040    6.7180 O.2   351  PHE351     -0.2867
    191  CB        11.8580  129.3890    4.2600 C.3   351  PHE351      0.0534
    192  CG        11.5880  129.3420    2.7950 C.ar  351  PHE351     -0.0203
    193  CD1       11.2260  130.4910    2.1050 C.ar  351  PHE351     -0.0042
    194  CD2       11.5550  128.1180    2.1350 C.ar  351  PHE351     -0.0042
    195  CE1       10.8110  130.4180    0.7750 C.ar  351  PHE351     -0.0003
    196  CE2       11.1380  128.0440    0.8020 C.ar  351  PHE351     -0.0003
    197  CZ        10.7670  129.1920    0.1140 C.ar  351  PHE351     -0.0000
@<TRIPOS>BOND
     1    70    71    1
     2    71    72    1
     3    71    74    1
     4    72    73    2
     5    48    49    1
     6    49    50    1
     7    49    52    1
     8    74    75    1
     9    50    51    2
    10    77    76   ar
    11    52    53    1
    12    55    53   ar
    13    55    57   ar
    14    53    54   ar
    15    75    76    1
    16    76    78   ar
    17    57    56   ar
    18    54    56   ar
    19    68    69    1
    20    68    67    1
    21    58    59    1
    22    69    63    1
    23    67    64    1
    24    65    66    2
    25    65    64    1
    26    81    82    2
    27    81    80    1
    28    89    87    1
    29    63    64    1
    30    63    60   am
    31    13    10    1
    32    59    60    1
    33    59    62    1
    34    60    61    2
    35    79    80    1
    36    10    11    1
    37    10     9    1
    38    12    11    2
    39    87    88    1
    40    87    86    2
    41    80    83    1
    42    83    84    1
    43    11    14   am
    44    86    85    1
    45    84    85    1
    46    14    15    1
    47    15    16    1
    48    15    18    1
    49    19    18    1
    50    28    26   ar
    51    28    29   ar
    52    16    17    2
    53    26    25   ar
    54    31    29   ar
    55    31    33   ar
    56    29    27   ar
    57     4     3    2
    58    20    21    1
    59     3     2    1
    60    25    27   ar
    61    25    24    1
    62    33    32   ar
    63    27    30   ar
    64     2     1    1
    65     2     5    1
    66    21    24    1
    67    21    22    1
    68    32    30   ar
    69     5     6    1
    70     8     6    1
    71    22    23    2
    72     6     7    1
    73   129   128   ar
    74   129   127   ar
    75   128   126   ar
    76    45    47   ar
    77    45    43   ar
    78    47    46   ar
    79    43    42   ar
    80    43    41   ar
    81    42    40   ar
    82   127   125   ar
    83    46    44   ar
    84   126   123   ar
    85    34    35    1
    86    41    44   ar
    87    41    39   ar
    88    40    39   ar
    89   125   123   ar
    90   125   124   ar
    91    39    38    1
    92   197   195   ar
    93   197   196   ar
    94   123   121   ar
    95    35    38    1
    96    35    36    1
    97   195   193   ar
    98   196   194   ar
    99   124   122   ar
   100   173   171   ar
   101   173   175   ar
   102   171   170   ar
   103   121   122   ar
   104   121   120    1
   105   176   175    1
   106   175   174   ar
   107    36    37    2
   108   120   117    1
   109   119   118    2
   110   115   114    1
   111   170   169    1
   112   170   172   ar
   113   169   166    1
   114   193   192   ar
   115   194   192   ar
   116   117   118    1
   117   117   116    1
   118   174   172   ar
   119   113   114   ar
   120   113   111   ar
   121   192   191    1
   122   166   165    1
   123   166   167    1
   124   114   112   ar
   125   111   109   ar
   126   168   167    2
   127   167   177   am
   128   112   110   ar
   129   191   188    1
   130   103   102    1
   131   109   110   ar
   132   109   108    1
   133   101   100    2
   134   102    99    1
   135   187   188    1
   136   163   162   ar
   137   177   178    1
   138   188   189    1
   139   161   162    1
   140   161   158    1
   141   162   164   ar
   142   185   183   ar
   143   185   186   ar
   144   100   104   am
   145   100    99    1
   146   105   108    1
   147   105   104    1
   148   105   106    1
   149   183   182   ar
   150   159   158    1
   151   159   160    2
   152   186   184   ar
   153    97    95   ar
   154    99    98    1
   155   158   157    1
   156   178   179    1
   157   178   181    1
   158   107   106    2
   159   189   190    2
   160   182   184   ar
   161   182   181    1
   162    95    96   ar
   163    95    94    1
   164   179   180    2
   165    94    91    1
   166   137   135   ar
   167    93    92    2
   168   156   155    1
   169   135   134    1
   170   135   136   ar
   171   134   131    1
   172    91    92    1
   173    91    90    1
   174   150   149    1
   175   154   153    2
   176   131   130    1
   177   131   132    1
   178   149   148    1
   179   155   152    1
   180   153   152    1
   181   148   147    1
   182   147   146    1
   183   152   151    1
   184   151   144   am
   185   146   143    1
   186   132   133    2
   187   143   144    1
   188   143   142    1
   189   144   145    2
   190   142   140   am
   191   141   140    2
   192   140   139    1
   193   139   138    1
