@<TRIPOS>MOLECULE
tmp/2h6iB02.pdb
 197 195 0 0 0
SMALL
GASTEIGER

@<TRIPOS>ATOM
      1  N          6.6450  136.3870   -6.1980 N.3    88  THR88      -0.1218
      2  CA         7.3730  135.5980   -5.2160 C.3    88  THR88       0.1862
      3  C          6.9980  136.0700   -3.7990 C.2    88  THR88       0.2287
      4  O          6.8610  135.2580   -2.8750 O.2    88  THR88      -0.2866
      5  CB         8.8910  135.7460   -5.4330 C.3    88  THR88       0.1770
      6  OG1        9.2200  135.4130   -6.7910 O.3    88  THR88      -0.2211
      7  CG2        9.6480  134.8340   -4.4790 C.3    88  THR88       0.0375
      8  N          3.5590  134.6200   -3.0540 N.3    91  TYR91      -0.1227
      9  CA         3.6390  133.2270   -2.6220 C.3    91  TYR91       0.1736
     10  C          4.1460  133.0940   -1.1990 C.2    91  TYR91       0.2595
     11  O          3.5370  132.3850   -0.3960 O.2    91  TYR91      -0.2718
     12  CB         4.5330  132.4450   -3.5560 C.3    91  TYR91       0.0548
     13  CG         4.9740  131.1400   -2.9660 C.ar   91  TYR91      -0.0200
     14  CD1        4.0610  130.1010   -2.7200 C.ar   91  TYR91      -0.0009
     15  CD2        6.3190  130.9320   -2.6440 C.ar   91  TYR91      -0.0009
     16  CE1        4.4940  128.8600   -2.1630 C.ar   91  TYR91       0.0417
     17  CE2        6.7670  129.7090   -2.0920 C.ar   91  TYR91       0.0417
     18  CZ         5.8610  128.6780   -1.8570 C.ar   91  TYR91       0.1957
     19  OH         6.3680  127.4890   -1.3560 O.3    91  TYR91      -0.2866
     20  N          5.2550  133.7720   -0.8900 N.am   92  TRP92      -0.1976
     21  CA         5.8280  133.7480    0.4600 C.3    92  TRP92       0.1640
     22  C          4.7700  134.0960    1.5250 C.2    92  TRP92       0.2290
     23  O          4.5580  133.3560    2.4980 O.2    92  TRP92      -0.2864
     24  CB         6.9800  134.7700    0.5860 C.3    92  TRP92       0.0576
     25  CG         8.2290  134.4090   -0.1260 C.ar   92  TRP92       0.0006
     26  CD1        8.6010  133.1630   -0.5510 C.ar   92  TRP92       0.0946
     27  CD2        9.2840  135.2900   -0.5040 C.ar   92  TRP92       0.0152
     28  NE1        9.8300  133.2210   -1.1830 N.ar   92  TRP92      -0.2442
     29  CE2       10.2660  134.5170   -1.1620 C.ar   92  TRP92       0.0810
     30  CE3        9.4970  136.6540   -0.3550 C.ar   92  TRP92       0.0012
     31  CZ2       11.4340  135.0670   -1.6660 C.ar   92  TRP92       0.0191
     32  CZ3       10.6710  137.2020   -0.8620 C.ar   92  TRP92       0.0001
     33  CH2       11.6190  136.4070   -1.5080 C.ar   92  TRP92       0.0015
     34  N         11.4760  131.8050  -11.6360 N.3   137  ALA137     -0.1245
     35  CA        11.3680  132.0590  -10.2070 C.3   137  ALA137      0.1562
     36  C          9.9520  132.5420   -9.9500 C.2   137  ALA137      0.2260
     37  O          9.1720  131.8730   -9.2510 O.2   137  ALA137     -0.2867
     38  CB        12.3950  133.1010   -9.7780 C.3   137  ALA137      0.0290
     39  N          7.1690  130.0820  -10.9470 N.3   140  TYR140     -0.1227
     40  CA         6.9760  129.0560   -9.9240 C.3   140  TYR140      0.1736
     41  C          6.0730  129.6240   -8.8170 C.2   140  TYR140      0.2595
     42  O          5.0760  129.0160   -8.4340 O.2   140  TYR140     -0.2718
     43  CB         8.3500  128.5970   -9.3530 C.3   140  TYR140      0.0548
     44  CG         8.2650  127.8520   -8.0260 C.ar  140  TYR140     -0.0200
     45  CD1        8.1130  126.4560   -7.9580 C.ar  140  TYR140     -0.0009
     46  CD2        8.2840  128.5590   -6.8320 C.ar  140  TYR140     -0.0009
     47  CE1        7.9810  125.8010   -6.6930 C.ar  140  TYR140      0.0417
     48  CE2        8.1530  127.9270   -5.5890 C.ar  140  TYR140      0.0417
     49  CZ         8.0070  126.5710   -5.5140 C.ar  140  TYR140      0.1957
     50  OH         7.9100  126.0420   -4.2460 O.3   140  TYR140     -0.2866
     51  N          6.4310  130.8090   -8.3420 N.am  141  ALA141     -0.1980
     52  CA         5.7060  131.4850   -7.2810 C.3   141  ALA141      0.1597
     53  C          4.2480  131.7620   -7.6380 C.2   141  ALA141      0.2287
     54  O          3.3410  131.5200   -6.8200 O.2   141  ALA141     -0.2864
     55  CB         6.4270  132.8220   -6.9220 C.3   141  ALA141      0.0319
     56  N         16.9350  130.0550  -16.6380 N.3   179  MET179     -0.1245
     57  CA        15.9660  130.6040  -15.6840 C.3   179  MET179      0.1570
     58  C         14.9660  131.5480  -16.4190 C.2   179  MET179      0.2261
     59  O         13.7980  131.6930  -16.0170 O.2   179  MET179     -0.2867
     60  CB        16.6950  131.3720  -14.5780 C.3   179  MET179      0.0387
     61  CG        17.1770  130.5070  -13.4500 C.3   179  MET179      0.0595
     62  SD        15.8140  129.5950  -12.7540 S.3   179  MET179     -0.1393
     63  CE        15.3530  130.5460  -11.4700 C.3   179  MET179      0.0692
     64  N         17.9820  125.3250   -9.9450 N.3   188  ARG188     -0.1245
     65  CA        16.7200  125.9230   -9.5280 C.3   188  ARG188      0.1563
     66  C         15.6950  125.7490  -10.6710 C.2   188  ARG188      0.2260
     67  O         14.5460  125.3570  -10.4370 O.2   188  ARG188     -0.2867
     68  CB        16.9080  127.4240   -9.2310 C.3   188  ARG188      0.0307
     69  CG        17.8710  127.7760   -8.0910 C.3   188  ARG188      0.0489
     70  CD        18.0870  129.2910   -8.0050 C.3   188  ARG188      0.2205
     71  NE        18.7590  129.7940   -9.2010 N.pl3 188  ARG188     -0.0865
     72  CZ        18.6130  131.0180   -9.7110 C.cat 188  ARG188      0.5346
     73  NH1       17.8090  131.8960   -9.1310 N.pl3 188  ARG188      0.1354
     74  NH2       19.2640  131.3630  -10.8180 N.pl3 188  ARG188      0.1354
     75  N         13.7860  122.5260  -11.0930 N.3   191  TYR191     -0.1227
     76  CA        12.7260  122.3970  -10.1060 C.3   191  TYR191      0.1736
     77  C         11.5570  123.3300  -10.3960 C.2   191  TYR191      0.2595
     78  O         10.4150  122.9480  -10.1870 O.2   191  TYR191     -0.2718
     79  CB        13.2470  122.6570   -8.6990 C.3   191  TYR191      0.0548
     80  CG        12.1520  122.7660   -7.6560 C.ar  191  TYR191     -0.0200
     81  CD1       11.3360  121.7000   -7.3690 C.ar  191  TYR191     -0.0009
     82  CD2       11.9230  123.9550   -6.9820 C.ar  191  TYR191     -0.0009
     83  CE1       10.3240  121.8170   -6.4460 C.ar  191  TYR191      0.0417
     84  CE2       10.9130  124.0660   -6.0590 C.ar  191  TYR191      0.0417
     85  CZ        10.1210  122.9930   -5.8020 C.ar  191  TYR191      0.1957
     86  OH         9.1110  123.0960   -4.9010 O.3   191  TYR191     -0.2866
     87  N         11.8190  124.5490  -10.8560 N.am  192  CYS192     -0.1970
     88  CA        10.7080  125.4450  -11.1840 C.3   192  CYS192      0.1712
     89  C          9.8770  124.8160  -12.3110 C.2   192  CYS192      0.2296
     90  O          8.6470  124.6750  -12.2070 O.2   192  CYS192     -0.2864
     91  CB        11.2140  126.8170  -11.6550 C.3   192  CYS192      0.0983
     92  SG        11.8170  127.8500  -10.3410 S.3   192  CYS192     -0.0798
     93  N         24.8830  122.3330   -1.5890 N.3   234  HIS234     -0.1241
     94  CA        24.1390  123.4580   -1.0210 C.3   234  HIS234      0.1621
     95  C         22.6380  123.1590   -0.7860 C.2   234  HIS234      0.2264
     96  O         21.8800  122.8010   -1.7050 O.2   234  HIS234     -0.2867
     97  CB        24.3270  124.6270   -1.9740 C.3   234  HIS234      0.0745
     98  CG        23.6480  125.8720   -1.5460 C.ar  234  HIS234      0.0817
     99  ND1       22.2810  125.9660   -1.4280 N.ar  234  HIS234     -0.2268
    100  CD2       24.1430  127.0910   -1.2360 C.ar  234  HIS234      0.1154
    101  CE1       21.9620  127.1950   -1.0640 C.ar  234  HIS234      0.1986
    102  NE2       23.0730  127.8980   -0.9420 N.ar  234  HIS234     -0.2212
    103  N         19.8870  124.6520   -0.6410 N.3   236  GLY236     -0.1210
    104  CA        18.8750  125.1600   -1.5370 C.3   236  GLY236      0.1956
    105  C         18.8570  124.4540   -2.8610 C.2   236  GLY236      0.2611
    106  O         17.7900  124.1030   -3.3780 O.2   236  GLY236     -0.2717
    107  N         20.0350  124.2510   -3.4210 N.am  237  TYR237     -0.1976
    108  CA        20.0900  123.5960   -4.6960 C.3   237  TYR237      0.1639
    109  C         19.7410  122.1370   -4.5100 C.2   237  TYR237      0.2290
    110  O         19.1610  121.5140   -5.4170 O.2   237  TYR237     -0.2864
    111  CB        21.4760  123.7620   -5.3200 C.3   237  TYR237      0.0560
    112  CG        21.7590  125.1880   -5.7350 C.ar  237  TYR237     -0.0198
    113  CD1       22.8780  125.8720   -5.2470 C.ar  237  TYR237     -0.0009
    114  CD2       20.9130  125.8520   -6.6400 C.ar  237  TYR237     -0.0009
    115  CE1       23.1520  127.1740   -5.6530 C.ar  237  TYR237      0.0417
    116  CE2       21.1780  127.1530   -7.0540 C.ar  237  TYR237      0.0417
    117  CZ        22.3030  127.8070   -6.5580 C.ar  237  TYR237      0.1957
    118  OH        22.5990  129.0840   -6.9800 O.3   237  TYR237     -0.2866
    119  N         16.0110  121.7160   -4.4290 N.3   240  CYS240     -0.1235
    120  CA        15.6080  121.8490   -5.8280 C.3   240  CYS240      0.1677
    121  C         15.7920  120.5650   -6.6380 C.2   240  CYS240      0.2270
    122  O         14.8660  120.0970   -7.3240 O.2   240  CYS240     -0.2867
    123  CB        16.4180  122.9520   -6.5150 C.3   240  CYS240      0.0956
    124  SG        15.7150  124.5600   -6.3900 S.3   240  CYS240     -0.0801
    125  N         20.9690  129.0350    9.7330 N.3   283  ASP283     -0.1239
    126  CA        20.0560  130.0320    9.1790 C.3   283  ASP283      0.1674
    127  C         18.6590  129.4600    9.1760 C.2   283  ASP283      0.2266
    128  O         18.4200  128.3640    8.6570 O.2   283  ASP283     -0.2867
    129  CB        20.4270  130.4060    7.7370 C.3   283  ASP283      0.1410
    130  CG        19.5300  131.5290    7.1660 C.2   283  ASP283      0.3668
    131  OD1       18.3510  131.6130    7.5880 O.co2 283  ASP283     -0.2456
    132  OD2       20.0080  132.3120    6.2950 O.co2 283  ASP283     -0.2456
    133  N         16.0370  129.9310    7.3810 N.3   285  CYS285     -0.1221
    134  CA        15.3980  129.5460    6.1170 C.3   285  CYS285      0.1808
    135  C         15.7790  128.1550    5.5940 C.2   285  CYS285      0.2601
    136  O         15.0480  127.5830    4.7890 O.2   285  CYS285     -0.2717
    137  CB        15.6090  130.6190    5.0230 C.3   285  CYS285      0.0970
    138  SG        17.2940  130.9270    4.5390 S.3   285  CYS285     -0.0800
    139  N         16.9030  127.6070    6.0520 N.am  286  TYR286     -0.1976
    140  CA        17.2950  126.2700    5.6240 C.3   286  TYR286      0.1639
    141  C         16.4190  125.2150    6.3330 C.2   286  TYR286      0.2290
    142  O         16.3260  124.0460    5.8950 O.2   286  TYR286     -0.2864
    143  CB        18.7860  126.0640    5.8830 C.3   286  TYR286      0.0560
    144  CG        19.6020  126.8030    4.8530 C.ar  286  TYR286     -0.0198
    145  CD1       20.3800  127.9210    5.1990 C.ar  286  TYR286     -0.0009
    146  CD2       19.4970  126.4610    3.5010 C.ar  286  TYR286     -0.0009
    147  CE1       21.0160  128.6850    4.2110 C.ar  286  TYR286      0.0417
    148  CE2       20.1290  127.2200    2.5130 C.ar  286  TYR286      0.0417
    149  CZ        20.8740  128.3320    2.8730 C.ar  286  TYR286      0.1957
    150  OH        21.3940  129.1360    1.8900 O.3   286  TYR286     -0.2866
    151  N         14.6450  124.1950    3.4120 N.3   289  TRP289     -0.1241
    152  CA        15.4310  123.6690    2.3150 C.3   289  TRP289      0.1605
    153  C         16.0770  122.3460    2.7040 C.2   289  TRP289      0.2264
    154  O         16.0140  121.3540    1.9490 O.2   289  TRP289     -0.2867
    155  CB        16.4930  124.6900    1.8960 C.3   289  TRP289      0.0550
    156  CG        15.9150  125.9860    1.4340 C.ar  289  TRP289      0.0003
    157  CD1       16.1760  127.2200    1.9450 C.ar  289  TRP289      0.0946
    158  CD2       15.0140  126.1820    0.3450 C.ar  289  TRP289      0.0152
    159  NE1       15.4960  128.1770    1.2390 N.ar  289  TRP289     -0.2442
    160  CE2       14.7750  127.5640    0.2490 C.ar  289  TRP289      0.0810
    161  CE3       14.3870  125.3260   -0.5620 C.ar  289  TRP289      0.0012
    162  CZ2       13.9350  128.1110   -0.7260 C.ar  289  TRP289      0.0191
    163  CZ3       13.5550  125.8690   -1.5310 C.ar  289  TRP289      0.0001
    164  CH2       13.3370  127.2470   -1.6060 C.ar  289  TRP289      0.0015
    165  N         10.5990  136.3620    3.2680 N.3   347  TYR347     -0.1227
    166  CA        11.2760  135.1680    2.8050 C.3   347  TYR347      0.1736
    167  C         11.4900  134.2960    4.0510 C.2   347  TYR347      0.2595
    168  O         10.9720  133.1640    4.1330 O.2   347  TYR347     -0.2718
    169  CB        12.6260  135.5260    2.1810 C.3   347  TYR347      0.0548
    170  CG        13.5500  134.3400    1.9920 C.ar  347  TYR347     -0.0200
    171  CD1       13.2180  133.2970    1.1200 C.ar  347  TYR347     -0.0009
    172  CD2       14.7610  134.2490    2.6960 C.ar  347  TYR347     -0.0009
    173  CE1       14.0760  132.1810    0.9550 C.ar  347  TYR347      0.0417
    174  CE2       15.6280  133.1350    2.5310 C.ar  347  TYR347      0.0417
    175  CZ        15.2700  132.1100    1.6590 C.ar  347  TYR347      0.1957
    176  OH        16.0760  131.0120    1.4900 O.3   347  TYR347     -0.2866
    177  N         12.2260  134.8160    5.0350 N.am  348  HIS348     -0.1975
    178  CA        12.4640  134.0170    6.2350 C.3   348  HIS348      0.1656
    179  C         11.1860  133.5830    6.9560 C.2   348  HIS348      0.2291
    180  O         11.0740  132.4440    7.4480 O.2   348  HIS348     -0.2864
    181  CB        13.4240  134.7350    7.1700 C.3   348  HIS348      0.0771
    182  CG        14.8430  134.6910    6.6950 C.ar  348  HIS348      0.0820
    183  ND1       15.4300  135.7200    5.9940 N.ar  348  HIS348     -0.2267
    184  CD2       15.7730  133.7080    6.7630 C.ar  348  HIS348      0.1154
    185  CE1       16.6590  135.3770    5.6510 C.ar  348  HIS348      0.1986
    186  NE2       16.8930  134.1590    6.1050 N.ar  348  HIS348     -0.2212
    187  N          9.7640  130.5330    4.9770 N.3   351  PHE351     -0.1241
    188  CA        10.5010  129.2980    5.1590 C.3   351  PHE351      0.1605
    189  C         10.7000  128.7980    6.5780 C.2   351  PHE351      0.2264
    190  O         10.7070  127.5730    6.7840 O.2   351  PHE351     -0.2867
    191  CB        11.7710  129.3570    4.3370 C.3   351  PHE351      0.0534
    192  CG        11.4810  129.3250    2.8680 C.ar  351  PHE351     -0.0203
    193  CD1       11.4480  130.4820    2.1240 C.ar  351  PHE351     -0.0042
    194  CD2       11.1090  128.1490    2.2530 C.ar  351  PHE351     -0.0042
    195  CE1       11.0460  130.4610    0.7910 C.ar  351  PHE351     -0.0003
    196  CE2       10.7090  128.1340    0.9280 C.ar  351  PHE351     -0.0003
    197  CZ        10.6770  129.2880    0.2040 C.ar  351  PHE351     -0.0000
@<TRIPOS>BOND
     1    56    57    1
     2    58    59    2
     3    58    57    1
     4    57    60    1
     5    60    61    1
     6    61    62    1
     7    62    63    1
     8    89    90    2
     9    89    88    1
    10    91    88    1
    11    91    92    1
    12    34    35    1
    13    88    87    1
    14    75    76    1
    15    39    40    1
    16    87    77   am
    17    74    72    1
    18    66    67    2
    19    66    65    1
    20    77    78    2
    21    77    76    1
    22    35    36    1
    23    35    38    1
    24    76    79    1
    25    36    37    2
    26    64    65    1
    27    40    43    1
    28    40    41    1
    29    72    71    2
    30    72    73    1
    31    65    68    1
    32    43    44    1
    33    68    69    1
    34    71    70    1
    35    41    42    2
    36    41    51   am
    37    79    80    1
    38    51    52    1
    39    69    70    1
    40    44    45   ar
    41    44    46   ar
    42    45    47   ar
    43    80    81   ar
    44    80    82   ar
    45    53    52    1
    46    53    54    2
    47    81    83   ar
    48   122   121    2
    49    52    55    1
    50   116   114   ar
    51   116   117   ar
    52    82    84   ar
    53   118   117    1
    54    46    48   ar
    55     6     5    1
    56    47    49   ar
    57   114   112   ar
    58   121   120    1
    59   117   115   ar
    60   123   124    1
    61   123   120    1
    62    83    85   ar
    63     1     2    1
    64    84    85   ar
    65   120   119    1
    66    85    86    1
    67   112   111    1
    68   112   113   ar
    69   115   113   ar
    70    48    49   ar
    71    49    50    1
    72     5     2    1
    73     5     7    1
    74   110   109    2
    75   111   108    1
    76     2     3    1
    77   108   109    1
    78   108   107    1
    79     3     4    2
    80    12    13    1
    81    12     9    1
    82   107   105   am
    83   106   105    2
    84     8     9    1
    85    13    14   ar
    86    13    15   ar
    87   105   104    1
    88    14    16   ar
    89    15    17   ar
    90     9    10    1
    91    16    18   ar
    92    17    18   ar
    93    97    98    1
    94    97    94    1
    95    18    19    1
    96    96    95    2
    97    31    33   ar
    98    31    29   ar
    99   164   163   ar
   100   164   162   ar
   101    93    94    1
   102    98    99   ar
   103    98   100   ar
   104   104   103    1
   105   163   161   ar
   106    33    32   ar
   107    99   101   ar
   108   100   102   ar
   109    10    20   am
   110    10    11    2
   111    28    29   ar
   112    28    26   ar
   113    29    27   ar
   114   101   102   ar
   115    94    95    1
   116    20    21    1
   117    32    30   ar
   118   162   160   ar
   119   161   158   ar
   120    26    25   ar
   121    27    30   ar
   122    27    25   ar
   123    25    24    1
   124   197   195   ar
   125   197   196   ar
   126   160   158   ar
   127   160   159   ar
   128   158   156   ar
   129    21    24    1
   130    21    22    1
   131   195   193   ar
   132   196   194   ar
   133   173   171   ar
   134   173   175   ar
   135   171   170   ar
   136   159   157   ar
   137   156   155    1
   138   156   157   ar
   139   176   175    1
   140    22    23    2
   141   175   174   ar
   142   150   149    1
   143   155   152    1
   144   154   153    2
   145   170   169    1
   146   170   172   ar
   147   193   192   ar
   148   169   166    1
   149   194   192   ar
   150   152   153    1
   151   152   151    1
   152   148   149   ar
   153   148   146   ar
   154   174   172   ar
   155   166   165    1
   156   166   167    1
   157   192   191    1
   158   149   147   ar
   159   146   144   ar
   160   167   168    2
   161   167   177   am
   162   147   145   ar
   163   191   188    1
   164   138   137    1
   165   136   135    2
   166   144   145   ar
   167   144   143    1
   168   187   188    1
   169   137   134    1
   170   177   178    1
   171   188   189    1
   172   135   139   am
   173   135   134    1
   174   140   143    1
   175   140   139    1
   176   140   141    1
   177   185   183   ar
   178   185   186   ar
   179   142   141    2
   180   183   182   ar
   181   186   184   ar
   182   134   133    1
   183   178   179    1
   184   178   181    1
   185   132   130   ar
   186   189   190    2
   187   182   184   ar
   188   182   181    1
   189   179   180    2
   190   130   131   ar
   191   130   129    1
   192   129   126    1
   193   128   127    2
   194   127   126    1
   195   126   125    1
