@<TRIPOS>MOLECULE
tmp/2h6mA00.pdb
 184 182 0 0 0
SMALL
GASTEIGER

@<TRIPOS>ATOM
      1  N         -7.9830    4.2200   27.4520 N.3    28  VAL28      -0.1231
      2  CA        -7.7580    2.9390   28.1240 C.3    28  VAL28       0.1692
      3  C         -6.9860    3.0720   29.4430 C.2    28  VAL28       0.2591
      4  O         -7.4010    2.5450   30.4730 O.2    28  VAL28      -0.2718
      5  CB        -7.0190    1.9410   27.1730 C.3    28  VAL28       0.0266
      6  CG1       -6.8350    0.5850   27.8310 C.3    28  VAL28       0.0020
      7  CG2       -7.7810    1.7830   25.8480 C.3    28  VAL28       0.0020
      8  N         -5.8540    3.7660   29.4010 N.am   29  MET29      -0.1979
      9  CA        -4.9730    3.8410   30.5640 C.3    29  MET29       0.1605
     10  C         -3.9510    4.9510   30.3490 C.2    29  MET29       0.2287
     11  O         -4.1200    5.7850   29.4660 O.2    29  MET29      -0.2864
     12  CB        -4.2750    2.4980   30.8000 C.3    29  MET29       0.0413
     13  CG        -3.3670    2.0560   29.6500 C.3    29  MET29       0.0598
     14  SD        -2.6530    0.4380   29.9180 S.3    29  MET29      -0.1393
     15  CE        -4.0810   -0.6330   29.8460 C.3    29  MET29       0.0692
     16  N         -0.8670   -4.8260   26.9550 N.3    44  HIS44      -0.1241
     17  CA        -2.2130   -5.3970   27.0700 C.3    44  HIS44       0.1621
     18  C         -3.3030   -4.3790   26.7420 C.2    44  HIS44       0.2264
     19  O         -4.4460   -4.7500   26.5210 O.2    44  HIS44      -0.2867
     20  CB        -2.4510   -6.0820   28.4220 C.3    44  HIS44       0.0745
     21  CG        -2.7890   -5.1520   29.5490 C.ar   44  HIS44       0.0817
     22  ND1       -1.9690   -4.9960   30.6440 N.ar   44  HIS44      -0.2268
     23  CD2       -3.8630   -4.3550   29.7680 C.ar   44  HIS44       0.1154
     24  CE1       -2.5190   -4.1400   31.4890 C.ar   44  HIS44       0.1986
     25  NE2       -3.6650   -3.7320   30.9780 N.ar   44  HIS44      -0.2212
     26  N          4.4790  -13.0170   38.1080 N.3   141  ALA141     -0.1231
     27  CA         3.1510  -12.5510   38.4930 C.3   141  ALA141      0.1694
     28  C          2.1510  -12.8310   37.3820 C.2   141  ALA141      0.2593
     29  O          2.4500  -12.6160   36.2080 O.2   141  ALA141     -0.2718
     30  CB         3.1770  -11.0680   38.8220 C.3   141  ALA141      0.0304
     31  N          0.9680  -13.3110   37.7610 N.am  142  THR142     -0.1939
     32  CA        -0.0930  -13.5900   36.7980 C.3   142  THR142      0.2028
     33  C         -1.3430  -12.7790   37.1230 C.2   142  THR142      0.2642
     34  O         -1.7340  -12.6560   38.2920 O.2   142  THR142     -0.2714
     35  CB        -0.4390  -15.1030   36.7360 C.3   142  THR142      0.1808
     36  OG1        0.7550  -15.8630   36.5230 O.3   142  THR142     -0.2208
     37  CG2       -1.4050  -15.3950   35.6050 C.3   142  THR142      0.0379
     38  N         -1.9540  -12.2190   36.0820 N.am  143  TYR143     -0.1959
     39  CA        -3.1840  -11.4380   36.2310 C.3   143  TYR143      0.1771
     40  C         -4.1090  -11.6070   35.0390 C.2   143  TYR143      0.2619
     41  O         -3.6720  -11.9860   33.9500 O.2   143  TYR143     -0.2715
     42  CB        -2.8840   -9.9530   36.4740 C.3   143  TYR143      0.0574
     43  CG        -1.8070   -9.3480   35.5890 C.ar  143  TYR143     -0.0198
     44  CD1       -2.1410   -8.5750   34.4750 C.ar  143  TYR143     -0.0009
     45  CD2       -0.4530   -9.5290   35.8890 C.ar  143  TYR143     -0.0009
     46  CE1       -1.1560   -8.0120   33.6690 C.ar  143  TYR143      0.0417
     47  CE2        0.5410   -8.9750   35.0880 C.ar  143  TYR143      0.0417
     48  CZ         0.1860   -8.2210   33.9860 C.ar  143  TYR143      0.1957
     49  OH         1.1790   -7.6720   33.2150 O.3   143  TYR143     -0.2866
     50  N         -5.3870  -11.3180   35.2570 N.am  144  VAL144     -0.1963
     51  CA        -6.4110  -11.5080   34.2380 C.3   144  VAL144      0.1727
     52  C         -6.7500  -10.2010   33.5210 C.2   144  VAL144      0.2616
     53  O         -7.0630   -9.1920   34.1480 O.2   144  VAL144     -0.2715
     54  CB        -7.6790  -12.2000   34.8240 C.3   144  VAL144      0.0290
     55  CG1       -8.4860  -11.2620   35.7150 C.3   144  VAL144      0.0023
     56  CG2       -8.5490  -12.7620   33.7140 C.3   144  VAL144      0.0023
     57  N         -6.6600  -10.2180   32.1980 N.am  145  HIS145     -0.1959
     58  CA        -7.0440   -9.0630   31.4150 C.3   145  HIS145      0.1787
     59  C         -8.3900   -9.3290   30.7640 C.2   145  HIS145      0.2620
     60  O         -8.5730  -10.3560   30.1200 O.2   145  HIS145     -0.2715
     61  CB        -5.9760   -8.7280   30.3670 C.3   145  HIS145      0.0785
     62  CG        -6.3820   -7.6400   29.4250 C.ar  145  HIS145      0.0821
     63  ND1       -6.5410   -7.8480   28.0720 N.ar  145  HIS145     -0.2267
     64  CD2       -6.6990   -6.3410   29.6460 C.ar  145  HIS145      0.1154
     65  CE1       -6.9220   -6.7220   27.4980 C.ar  145  HIS145      0.1986
     66  NE2       -7.0210   -5.7900   28.4300 N.ar  145  HIS145     -0.2212
     67  N         -9.3340   -8.4140   30.9730 N.am  146  LYS146     -0.1977
     68  CA       -10.6320   -8.4880   30.3190 C.3   146  LYS146      0.1596
     69  C        -10.5630   -7.6950   29.0210 C.2   146  LYS146      0.2287
     70  O        -10.2170   -6.5100   29.0150 O.2   146  LYS146     -0.2864
     71  CB       -11.7420   -7.9490   31.2280 C.3   146  LYS146      0.0298
     72  CG       -13.1580   -8.2040   30.7090 C.3   146  LYS146      0.0038
     73  CD       -14.2170   -7.5910   31.6180 C.3   146  LYS146      0.0206
     74  CE       -14.3940   -8.3870   32.9080 C.3   146  LYS146      0.1093
     75  NZ       -15.3820   -7.7550   33.8270 N.3   146  LYS146     -0.1314
     76  N          4.8130   -6.2280   44.2270 N.3   162  ARG162     -0.1245
     77  CA         3.5020   -6.4320   44.8190 C.3   162  ARG162      0.1563
     78  C          3.4220   -5.6530   46.1200 C.2   162  ARG162      0.2260
     79  O          4.3000   -5.7520   46.9770 O.2   162  ARG162     -0.2867
     80  CB         3.2670   -7.9120   45.0850 C.3   162  ARG162      0.0307
     81  CG         2.7010   -8.6760   43.9020 C.3   162  ARG162      0.0489
     82  CD         2.4790  -10.1440   44.2370 C.3   162  ARG162      0.2205
     83  NE         1.8070  -10.3590   45.5190 N.pl3 162  ARG162     -0.0865
     84  CZ         0.5740  -10.8420   45.6530 C.cat 162  ARG162      0.5346
     85  NH1       -0.1390  -11.1680   44.5820 N.pl3 162  ARG162      0.1354
     86  NH2        0.0540  -11.0010   46.8630 N.pl3 162  ARG162      0.1354
     87  N         -6.5090    0.1730   44.1030 N.3   167  GLY167     -0.1210
     88  CA        -6.4510    0.7840   42.7820 C.3   167  GLY167      0.1956
     89  C         -7.8050    0.8550   42.1130 C.2   167  GLY167      0.2612
     90  O         -8.8020    0.3270   42.6270 O.2   167  GLY167     -0.2717
     91  N         -7.8280    1.5030   40.9520 N.am  168  LEU168     -0.1966
     92  CA        -9.0240    1.6030   40.1310 C.3   168  LEU168      0.1713
     93  C         -8.6980    1.3650   38.6670 C.2   168  LEU168      0.2458
     94  O         -7.5440    1.5410   38.2410 O.2   168  LEU168     -0.2730
     95  CB        -9.6580    2.9900   40.2860 C.3   168  LEU168      0.0310
     96  CG       -10.1540    3.3790   41.6830 C.3   168  LEU168      0.0022
     97  CD1      -10.4230    4.8680   41.7570 C.3   168  LEU168      0.0001
     98  CD2      -11.4020    2.5820   42.0500 C.3   168  LEU168      0.0001
     99  N         -9.7150    0.9640   37.8840 N.am  169  PRO169     -0.2716
    100  CA        -9.5630    0.8920   36.4410 C.3   169  PRO169      0.1536
    101  C         -9.0130    2.2050   35.8990 C.2   169  PRO169      0.2599
    102  O         -9.4320    3.2870   36.3250 O.2   169  PRO169     -0.2715
    103  CB       -10.9950    0.6830   35.9540 C.3   169  PRO169      0.0310
    104  CG       -11.6460   -0.0470   37.0630 C.3   169  PRO169      0.0237
    105  CD       -11.0630    0.5350   38.3140 C.3   169  PRO169      0.0939
    106  N         -8.0680    2.0920   34.9770 N.am  170  GLY170     -0.1941
    107  CA        -7.4680    3.2560   34.3560 C.3   170  GLY170      0.2014
    108  C         -6.1120    3.6330   34.9170 C.2   170  GLY170      0.2639
    109  O         -5.4030    4.4110   34.3000 O.2   170  GLY170     -0.2714
    110  N         -5.7630    3.0990   36.0870 N.am  171  MET171     -0.1963
    111  CA        -4.4960    3.4610   36.7390 C.3   171  MET171      0.1736
    112  C         -3.2770    2.7720   36.1270 C.2   171  MET171      0.2616
    113  O         -2.1500    3.1720   36.3930 O.2   171  MET171     -0.2715
    114  CB        -4.5400    3.1440   38.2280 C.3   171  MET171      0.0427
    115  CG        -5.4810    4.0320   39.0110 C.3   171  MET171      0.0599
    116  SD        -5.3030    3.6680   40.7610 S.3   171  MET171     -0.1393
    117  CE        -6.3640    4.9340   41.4540 C.3   171  MET171      0.0692
    118  N         -3.4950    1.7450   35.3080 N.am  172  CYS172     -0.1968
    119  CA        -2.3690    1.0890   34.6370 C.3   172  CYS172      0.1712
    120  C         -1.5520    2.1140   33.8780 C.2   172  CYS172      0.2296
    121  O         -2.1060    3.0880   33.3450 O.2   172  CYS172     -0.2864
    122  CB        -2.8330    0.0260   33.6370 C.3   172  CYS172      0.0983
    123  SG        -3.4960   -1.4020   34.4160 S.3   172  CYS172     -0.0798
    124  N          2.6650    0.3040   36.7620 N.3   191  HIS191     -0.1226
    125  CA         1.4990   -0.3830   37.2620 C.3   191  HIS191      0.1752
    126  C          0.7840   -1.1400   36.1520 C.2   191  HIS191      0.2596
    127  O          0.5190   -0.5650   35.0880 O.2   191  HIS191     -0.2718
    128  CB         0.5370    0.6110   37.8900 C.3   191  HIS191      0.0759
    129  CG        -0.6350   -0.0450   38.5360 C.ar  191  HIS191      0.0818
    130  ND1       -0.5160   -0.8160   39.6740 N.ar  191  HIS191     -0.2268
    131  CD2       -1.9520   -0.0400   38.2160 C.ar  191  HIS191      0.1154
    132  CE1       -1.7080   -1.2690   40.0190 C.ar  191  HIS191      0.1986
    133  NE2       -2.5980   -0.8070   39.1580 N.ar  191  HIS191     -0.2212
    134  N          0.5250   -2.4290   36.3950 N.am  192  VAL192     -0.1966
    135  CA        -0.1430   -3.2980   35.4020 C.3   192  VAL192      0.1727
    136  C         -1.4120   -4.0140   35.8840 C.2   192  VAL192      0.2616
    137  O         -2.2440   -4.3980   35.0560 O.2   192  VAL192     -0.2715
    138  CB         0.8240   -4.3580   34.7730 C.3   192  VAL192      0.0290
    139  CG1        1.9060   -3.7040   33.9380 C.3   192  VAL192      0.0023
    140  CG2        1.4270   -5.2760   35.8350 C.3   192  VAL192      0.0023
    141  N         -1.5800   -4.1950   37.1950 N.am  193  ALA193     -0.1963
    142  CA        -2.7150   -4.9760   37.6800 C.3   193  ALA193      0.1728
    143  C         -3.0320   -4.6800   39.1300 C.2   193  ALA193      0.2617
    144  O         -2.1830   -4.2010   39.8830 O.2   193  ALA193     -0.2715
    145  CB        -2.4320   -6.4560   37.5120 C.3   193  ALA193      0.0334
    146  N         -4.2550   -4.9980   39.5290 N.am  194  GLY194     -0.1940
    147  CA        -4.6620   -4.8300   40.9170 C.3   194  GLY194      0.2014
    148  C         -5.8810   -5.6670   41.2060 C.2   194  GLY194      0.2639
    149  O         -6.6600   -5.9810   40.3060 O.2   194  GLY194     -0.2714
    150  N         -6.0470   -6.0260   42.4690 N.am  195  GLY195     -0.1939
    151  CA        -7.2150   -6.7840   42.8950 C.3   195  GLY195      0.2014
    152  C         -6.9640   -7.3540   44.2650 C.2   195  GLY195      0.2638
    153  O         -5.8090   -7.5740   44.6410 O.2   195  GLY195     -0.2714
    154  N         -8.0480   -7.5870   45.0110 N.am  196  ASN196     -0.1972
    155  CA        -7.9780   -8.0790   46.3900 C.3   196  ASN196      0.1688
    156  C         -7.0030   -7.2750   47.2610 C.2   196  ASN196      0.2292
    157  O         -6.2090   -7.8450   48.0190 O.2   196  ASN196     -0.2864
    158  CB        -7.6530   -9.5830   46.4240 C.3   196  ASN196      0.1181
    159  CG        -8.6840  -10.4330   45.6810 C.2   196  ASN196      0.2629
    160  OD1       -8.4050  -11.5740   45.3100 O.2   196  ASN196     -0.2716
    161  ND2       -9.8750   -9.8820   45.4650 N.am  196  ASN196     -0.0877
    162  N         -4.3880   -5.6060   46.4420 N.3   198  ILE198     -0.1231
    163  CA        -2.9790   -5.7220   46.0820 C.3   198  ILE198      0.1692
    164  C         -2.7170   -5.1100   44.7100 C.2   198  ILE198      0.2592
    165  O         -3.5190   -5.2520   43.7820 O.2   198  ILE198     -0.2718
    166  CB        -2.4130   -7.1740   46.2950 C.3   198  ILE198      0.0266
    167  CG1       -0.9060   -7.2450   46.0010 C.3   198  ILE198      0.0019
    168  CG2       -3.2220   -8.2230   45.5380 C.3   198  ILE198      0.0020
    169  CD1       -0.5580   -7.6450   44.5890 C.3   198  ILE198      0.0001
    170  N         -1.6070   -4.3830   44.6230 N.am  199  LEU199     -0.1966
    171  CA        -1.2300   -3.6620   43.4190 C.3   199  LEU199      0.1728
    172  C          0.0420   -4.2440   42.8500 C.2   199  LEU199      0.2616
    173  O          0.9770   -4.5460   43.5990 O.2   199  LEU199     -0.2715
    174  CB        -1.0350   -2.1760   43.7320 C.3   199  LEU199      0.0311
    175  CG        -2.2450   -1.4340   44.3130 C.3   199  LEU199      0.0022
    176  CD1       -1.8830   -0.0100   44.7240 C.3   199  LEU199      0.0001
    177  CD2       -3.4210   -1.4330   43.3310 C.3   199  LEU199      0.0001
    178  N          0.0640   -4.3970   41.5260 N.am  200  VAL200     -0.1977
    179  CA         1.1690   -5.0660   40.8400 C.3   200  VAL200      0.1596
    180  C          1.7750   -4.1620   39.7790 C.2   200  VAL200      0.2287
    181  O          1.0580   -3.6540   38.9140 O.2   200  VAL200     -0.2864
    182  CB         0.7030   -6.3920   40.1890 C.3   200  VAL200      0.0276
    183  CG1        1.8460   -7.0730   39.4580 C.3   200  VAL200      0.0022
    184  CG2        0.1690   -7.3180   41.2490 C.3   200  VAL200      0.0022
@<TRIPOS>BOND
     1     7     5    1
     2    19    18    2
     3    18    17    1
     4    16    17    1
     5    17    20    1
     6     5     6    1
     7     5     2    1
     8     1     2    1
     9    65    63   ar
    10    65    66   ar
    11    63    62   ar
    12     2     3    1
    13    20    21    1
    14    66    64   ar
    15    70    69    2
    16    69    68    1
    17     8     3   am
    18     8     9    1
    19    62    64   ar
    20    62    61    1
    21     3     4    2
    22    11    10    2
    23    21    23   ar
    24    21    22   ar
    25    13    14    1
    26    13    12    1
    27    23    25   ar
    28    15    14    1
    29    60    59    2
    30    68    67    1
    31    68    71    1
    32    10     9    1
    33    61    58    1
    34     9    12    1
    35    22    24   ar
    36    72    71    1
    37    72    73    1
    38    59    67   am
    39    59    58    1
    40    25    24   ar
    41    58    57    1
    42    73    74    1
    43    57    52   am
    44    74    75    1
    45    49    48    1
    46   121   120    2
    47    52    53    2
    48    52    51    1
    49   122   123    1
    50   122   119    1
    51    46    48   ar
    52    46    44   ar
    53    56    54    1
    54   120   119    1
    55   139   138    1
    56    41    40    2
    57    48    47   ar
    58    51    54    1
    59    51    50    1
    60   109   108    2
    61   107   108    1
    62   107   106    1
    63    44    43   ar
    64   119   118    1
    65   138   135    1
    66   138   140    1
    67    54    55    1
    68   108   110   am
    69   106   101   am
    70    40    50   am
    71    40    39    1
    72   137   136    2
    73   127   126    2
    74    47    45   ar
    75   118   112   am
    76   135   136    1
    77   135   134    1
    78    43    45   ar
    79    43    42    1
    80    37    35    1
    81   136   141   am
    82   101   102    2
    83   101   100    1
    84   103   100    1
    85   103   104    1
    86    38    39    1
    87    38    33   am
    88   110   111    1
    89   112   113    2
    90   112   111    1
    91   126   134   am
    92   126   125    1
    93    29    28    2
    94    39    42    1
    95   100    99    1
    96    36    35    1
    97    35    32    1
    98   111   114    1
    99   124   125    1
   100    32    33    1
   101    32    31    1
   102   104   105    1
   103    33    34    2
   104   141   142    1
   105   125   128    1
   106    28    31   am
   107    28    27    1
   108   145   142    1
   109   142   143    1
   110    99   105    1
   111    99    93   am
   112   128   129    1
   113    26    27    1
   114   131   129   ar
   115   131   133   ar
   116   114   115    1
   117    94    93    2
   118    27    30    1
   119   129   130   ar
   120    93    92    1
   121   181   180    2
   122   115   116    1
   123   143   146   am
   124   143   144    2
   125   133   132   ar
   126   183   182    1
   127   146   147    1
   128   130   132   ar
   129   180   179    1
   130    92    95    1
   131    92    91    1
   132   182   179    1
   133   182   184    1
   134    95    96    1
   135   149   148    2
   136   116   117    1
   137   179   178    1
   138   147   148    1
   139    91    89   am
   140   148   150   am
   141   178   172   am
   142    96    97    1
   143    96    98    1
   144    89    90    2
   145    89    88    1
   146   150   151    1
   147    88    87    1
   148   172   171    1
   149   172   173    2
   150   151   152    1
   151   177   175    1
   152   171   174    1
   153   171   170    1
   154   174   175    1
   155   165   164    2
   156    81    82    1
   157    81    80    1
   158    76    77    1
   159    82    83    1
   160   152   153    2
   161   152   154   am
   162   175   176    1
   163    85    84    1
   164   169   167    1
   165   170   164   am
   166   164   163    1
   167    77    80    1
   168    77    78    1
   169   154   155    1
   170   160   159    2
   171   161   159   am
   172    83    84    2
   173   168   166    1
   174    84    86    1
   175   159   158    1
   176   167   166    1
   177   163   166    1
   178   163   162    1
   179    78    79    2
   180   155   158    1
   181   155   156    1
   182   156   157    2
