@<TRIPOS>MOLECULE
tmp/2h6oA02.pdb
 88 82 0 0 0
SMALL
GASTEIGER

@<TRIPOS>ATOM
      1  N        -11.8650   61.3040    0.7000 N.3     3  LEU3       -0.1245
      2  CA       -10.6950   60.8250    1.4540 C.3     3  LEU3        0.1561
      3  C         -9.9130   61.8120    2.3170 C.2     3  LEU3        0.2260
      4  O         -9.8540   63.0080    2.0350 O.2     3  LEU3       -0.2867
      5  CB        -9.7370   60.1450    0.4900 C.3     3  LEU3        0.0270
      6  CG       -10.2280   58.7900   -0.0320 C.3     3  LEU3        0.0019
      7  CD1      -10.5480   57.8190    1.0740 C.3     3  LEU3        0.0001
      8  CD2      -11.3940   58.8970   -0.9980 C.3     3  LEU3        0.0001
      9  N         -6.7500   48.0470    0.0190 N.3    42  ASP42      -0.1239
     10  CA        -7.8730   48.6180   -0.7080 C.3    42  ASP42       0.1674
     11  C         -7.4520   49.7230   -1.6510 C.2    42  ASP42       0.2266
     12  O         -7.4140   50.8800   -1.2770 O.2    42  ASP42      -0.2867
     13  CB        -8.8980   49.1680    0.2770 C.3    42  ASP42       0.1410
     14  CG       -10.3190   49.1470   -0.2670 C.2    42  ASP42       0.3668
     15  OD1      -10.5550   49.6750   -1.3810 O.co2  42  ASP42      -0.2456
     16  OD2      -11.2020   48.6020    0.4350 O.co2  42  ASP42      -0.2456
     17  N         -7.7840   52.3420   -4.8510 N.3    44  ASN44      -0.1240
     18  CA        -8.8110   53.1460   -5.5290 C.3    44  ASN44       0.1653
     19  C         -8.0490   54.2720   -6.2670 C.2    44  ASN44       0.2266
     20  O         -7.5650   55.1940   -5.6160 O.2    44  ASN44      -0.2867
     21  CB        -9.7540   53.7730   -4.4740 C.3    44  ASN44       0.1155
     22  CG       -11.2270   53.5910   -4.8040 C.2    44  ASN44       0.2627
     23  OD1      -11.7250   54.0300   -5.8520 O.2    44  ASN44      -0.2716
     24  ND2      -11.9560   52.9530   -3.8650 N.am   44  ASN44      -0.0877
     25  N        -12.7640   58.3230  -11.5350 N.3    59  ASN59      -0.1225
     26  CA       -12.4620   57.4600  -10.4080 C.3    59  ASN59       0.1785
     27  C        -12.5490   56.0070  -10.8430 C.2    59  ASN59       0.2597
     28  O        -13.5570   55.5840  -11.3960 O.2    59  ASN59      -0.2718
     29  CB       -13.4640   57.7170   -9.2880 C.3    59  ASN59       0.1169
     30  CG       -13.7490   59.1990   -9.0890 C.2    59  ASN59       0.2627
     31  OD1      -12.8690   59.9730   -8.6900 O.2    59  ASN59      -0.2716
     32  ND2      -14.9880   59.6040   -9.3740 N.am   59  ASN59      -0.0877
     33  N        -11.4770   55.2490  -10.6310 N.am   60  LEU60      -0.1966
     34  CA       -11.4810   53.8310  -10.9730 C.3    60  LEU60       0.1728
     35  C        -11.5140   53.0930   -9.6500 C.2    60  LEU60       0.2616
     36  O        -11.0090   53.5900   -8.6370 O.2    60  LEU60      -0.2715
     37  CB       -10.2470   53.4280  -11.7930 C.3    60  LEU60       0.0311
     38  CG       -10.4120   53.5490  -13.3160 C.3    60  LEU60       0.0022
     39  CD1      -10.4160   55.0040  -13.6940 C.3    60  LEU60       0.0001
     40  CD2       -9.3080   52.8360  -14.0680 C.3    60  LEU60       0.0001
     41  N        -12.1360   51.9190   -9.6560 N.am   61  ASP61      -0.1971
     42  CA       -12.2810   51.1120   -8.4470 C.3    61  ASP61       0.1709
     43  C        -11.5640   49.7960   -8.6500 C.2    61  ASP61       0.2293
     44  O        -12.0200   48.9470   -9.4110 O.2    61  ASP61      -0.2864
     45  CB       -13.7750   50.8780   -8.1810 C.3    61  ASP61       0.1436
     46  CG       -14.0370   49.9030   -7.0550 C.2    61  ASP61       0.3671
     47  OD1      -13.6460   48.7140   -7.1800 O.co2  61  ASP61      -0.2456
     48  OD2      -14.6560   50.3340   -6.0570 O.co2  61  ASP61      -0.2456
     49  N        -16.4440   54.9680  -12.3510 N.3    79  PHE79      -0.1241
     50  CA       -17.3450   56.1120  -12.4770 C.3    79  PHE79       0.1605
     51  C        -16.6860   57.3620  -13.0730 C.2    79  PHE79       0.2264
     52  O        -15.6620   57.8230  -12.5810 O.2    79  PHE79      -0.2867
     53  CB       -17.9360   56.4710  -11.1130 C.3    79  PHE79       0.0534
     54  CG       -18.5100   57.8540  -10.9890 C.ar   79  PHE79      -0.0203
     55  CD1      -19.4160   58.3350  -11.9440 C.ar   79  PHE79      -0.0042
     56  CD2      -18.0090   58.7460  -10.0380 C.ar   79  PHE79      -0.0042
     57  CE1      -19.9910   59.6010  -11.8060 C.ar   79  PHE79      -0.0003
     58  CE2      -18.5760   60.0160   -9.8850 C.ar   79  PHE79      -0.0003
     59  CZ       -19.4950   60.4820  -10.8380 C.ar   79  PHE79      -0.0000
     60  N         -5.0760   55.8940   -4.3430 N.3   128  TYR128     -0.1241
     61  CA        -5.3750   55.7260   -2.9370 C.3   128  TYR128      0.1605
     62  C         -5.0800   54.2990   -2.5270 C.2   128  TYR128      0.2264
     63  O         -5.2770   53.3730   -3.2930 O.2   128  TYR128     -0.2867
     64  CB        -6.8280   56.1090   -2.6770 C.3   128  TYR128      0.0534
     65  CG        -7.1040   57.5620   -3.0070 C.ar  128  TYR128     -0.0201
     66  CD1       -7.1970   57.9880   -4.3210 C.ar  128  TYR128     -0.0009
     67  CD2       -7.2170   58.5200   -2.0010 C.ar  128  TYR128     -0.0009
     68  CE1       -7.3910   59.3380   -4.6300 C.ar  128  TYR128      0.0417
     69  CE2       -7.4110   59.8670   -2.3020 C.ar  128  TYR128      0.0417
     70  CZ        -7.4980   60.2660   -3.6180 C.ar  128  TYR128      0.1957
     71  OH        -7.6890   61.5890   -3.9410 O.3   128  TYR128     -0.2866
     72  N         -5.6490   52.0830    0.9710 N.3   130  GLN130     -0.1245
     73  CA        -5.9770   51.9650    2.3760 C.3   130  GLN130      0.1566
     74  C         -5.3340   50.7230    2.9630 C.2   130  GLN130      0.2260
     75  O         -5.5700   49.6000    2.5130 O.2   130  GLN130     -0.2867
     76  CB        -7.4810   51.9370    2.5790 C.3   130  GLN130      0.0367
     77  CG        -7.8980   51.8340    4.0190 C.3   130  GLN130      0.0905
     78  CD        -9.1340   52.6520    4.2930 C.2   130  GLN130      0.2608
     79  OE1      -10.0700   52.6680    3.4830 O.2   130  GLN130     -0.2717
     80  NE2       -9.1510   53.3420    5.4370 N.am  130  GLN130     -0.0878
     81  N         -5.0130   55.2870    5.1770 N.3   136  MET136     -0.1245
     82  CA        -5.1360   55.6120    3.7620 C.3   136  MET136      0.1570
     83  C         -3.8130   56.1960    3.3230 C.2   136  MET136      0.2261
     84  O         -3.3050   57.1120    3.9610 O.2   136  MET136     -0.2867
     85  CB        -6.2510   56.6420    3.5400 C.3   136  MET136      0.0387
     86  CG        -6.6050   56.8800    2.0930 C.3   136  MET136      0.0595
     87  SD        -7.1620   55.3790    1.3110 S.3   136  MET136     -0.1393
     88  CE        -8.7710   55.1150    2.0890 C.3   136  MET136      0.0692
@<TRIPOS>BOND
     1    40    38    1
     2    39    38    1
     3    38    37    1
     4    51    52    2
     5    51    50    1
     6    50    49    1
     7    50    53    1
     8    55    57   ar
     9    55    54   ar
    10    57    59   ar
    11    37    34    1
    12    25    26    1
    13    28    27    2
    14    53    54    1
    15    54    56   ar
    16    34    33    1
    17    34    35    1
    18    27    33   am
    19    27    26    1
    20    59    58   ar
    21    26    29    1
    22    56    58   ar
    23    41    35   am
    24    41    42    1
    25    35    36    2
    26    44    43    2
    27    32    30   am
    28    29    30    1
    29    30    31    2
    30    43    42    1
    31    42    45    1
    32    45    46    1
    33    47    46   ar
    34    46    48   ar
    35    19    20    2
    36    19    18    1
    37    23    22    2
    38    18    17    1
    39    18    21    1
    40    22    21    1
    41    22    24   am
    42    68    66   ar
    43    68    70   ar
    44    60    61    1
    45    66    65   ar
    46    71    70    1
    47    70    69   ar
    48    63    62    2
    49    65    64    1
    50    65    67   ar
    51    61    64    1
    52    61    62    1
    53    69    67   ar
    54    11    12    2
    55    11    10    1
    56    15    14   ar
    57     8     6    1
    58    10     9    1
    59    10    13    1
    60    14    13    1
    61    14    16   ar
    62     6     5    1
    63     6     7    1
    64     5     2    1
    65     1     2    1
    66    72    73    1
    67    87    88    1
    68    87    86    1
    69     2     3    1
    70     4     3    2
    71    86    85    1
    72    73    76    1
    73    73    74    1
    74    75    74    2
    75    76    77    1
    76    83    82    1
    77    83    84    2
    78    79    78    2
    79    85    82    1
    80    82    81    1
    81    77    78    1
    82    78    80   am
