@<TRIPOS>MOLECULE
tmp/2h6oA06.pdb
 67 63 0 0 0
SMALL
GASTEIGER

@<TRIPOS>ATOM
      1  N         33.8060   41.6860  -39.1890 N.3   186  THR186     -0.1218
      2  CA        34.7030   42.8330  -39.0710 C.3   186  THR186      0.1862
      3  C         34.5480   43.4650  -37.6790 C.2   186  THR186      0.2287
      4  O         33.8710   44.4840  -37.5460 O.2   186  THR186     -0.2866
      5  CB        34.3760   43.9310  -40.1660 C.3   186  THR186      0.1770
      6  OG1       34.0980   43.3060  -41.4310 O.3   186  THR186     -0.2211
      7  CG2       35.5570   44.8910  -40.3560 C.3   186  THR186      0.0375
      8  N         38.6140   47.1030  -33.7890 N.3   190  ASP190     -0.1225
      9  CA        37.8990   48.0660  -34.6020 C.3   190  ASP190      0.1805
     10  C         36.4440   47.6820  -34.8570 C.2   190  ASP190      0.2598
     11  O         36.0700   47.2980  -35.9700 O.2   190  ASP190     -0.2718
     12  CB        38.6510   48.3030  -35.9200 C.3   190  ASP190      0.1424
     13  CG        39.5380   49.5530  -35.8670 C.2   190  ASP190      0.3668
     14  OD1       40.2780   49.7250  -34.8630 O.co2 190  ASP190     -0.2456
     15  OD2       39.4900   50.3570  -36.8200 O.co2 190  ASP190     -0.2456
     16  N         35.6360   47.7830  -33.8030 N.am  191  SER191     -0.1938
     17  CA        34.2120   47.5030  -33.8860 C.3   191  SER191      0.2055
     18  C         33.4680   48.5790  -33.1080 C.2   191  SER191      0.2643
     19  O         33.8520   48.9280  -31.9880 O.2   191  SER191     -0.2714
     20  CB        33.8720   46.1250  -33.3080 C.3   191  SER191      0.2130
     21  OG        32.4930   45.8350  -33.4880 O.3   191  SER191     -0.2179
     22  N         32.4340   49.1370  -33.7310 N.am  192  ASN192     -0.1971
     23  CA        31.5930   50.1480  -33.0990 C.3   192  ASN192      0.1688
     24  C         30.2460   49.4430  -32.9710 C.2   192  ASN192      0.2292
     25  O         29.6290   49.0920  -33.9830 O.2   192  ASN192     -0.2864
     26  CB        31.4410   51.3980  -33.9770 C.3   192  ASN192      0.1181
     27  CG        32.6180   52.2640  -33.9670 C.2   192  ASN192      0.2629
     28  OD1       33.1750   52.7350  -32.9500 O.2   192  ASN192     -0.2716
     29  ND2       32.9620   52.5690  -35.1890 N.am  192  ASN192     -0.0877
     30  N         27.6140   55.0540  -28.6600 N.3   214  GLU214     -0.1245
     31  CA        27.9050   53.6800  -29.0760 C.3   214  GLU214      0.1567
     32  C         29.0260   53.1500  -28.1850 C.2   214  GLU214      0.2260
     33  O         29.6270   53.9060  -27.4150 O.2   214  GLU214     -0.2867
     34  CB        28.4040   53.6470  -30.5170 C.3   214  GLU214      0.0388
     35  CG        27.7270   54.6060  -31.4620 C.3   214  GLU214      0.1160
     36  CD        28.5100   54.7550  -32.7560 C.2   214  GLU214      0.3649
     37  OE1       29.6800   55.2020  -32.6910 O.co2 214  GLU214     -0.2457
     38  OE2       27.9610   54.4210  -33.8320 O.co2 214  GLU214     -0.2457
     39  N         32.2950   52.3860  -28.5150 N.3   216  SER216     -0.1217
     40  CA        33.2950   52.6140  -29.5570 C.3   216  SER216      0.1889
     41  C         34.4800   51.6470  -29.5450 C.2   216  SER216      0.2288
     42  O         35.0190   51.2880  -30.5990 O.2   216  SER216     -0.2866
     43  CB        33.7850   54.0660  -29.4890 C.3   216  SER216      0.2089
     44  OG        33.9100   54.5000  -28.1490 O.3   216  SER216     -0.2183
     45  N         28.0560   47.2910  -37.1410 N.3   284  GLY284     -0.1210
     46  CA        29.4270   47.3010  -36.6850 C.3   284  GLY284      0.1956
     47  C         29.9000   48.6220  -37.2350 C.2   284  GLY284      0.2612
     48  O         30.9530   48.7210  -37.8630 O.2   284  GLY284     -0.2717
     49  N         29.0990   49.6510  -36.9930 N.am  285  ASN285     -0.1960
     50  CA        29.4200   50.9510  -37.5310 C.3   285  ASN285      0.1819
     51  C         29.2780   52.1610  -36.6080 C.2   285  ASN285      0.2622
     52  O         28.6370   52.1150  -35.5490 O.2   285  ASN285     -0.2715
     53  CB        28.5870   51.1610  -38.8000 C.3   285  ASN285      0.1195
     54  CG        28.5360   49.9100  -39.6700 C.2   285  ASN285      0.2630
     55  OD1       29.5730   49.3210  -39.9890 O.2   285  ASN285     -0.2716
     56  ND2       27.3280   49.4970  -40.0550 N.am  285  ASN285     -0.0877
     57  N         29.9230   53.2420  -37.0420 N.am  286  GLY286     -0.1940
     58  CA        29.8980   54.5150  -36.3440 C.3   286  GLY286      0.1998
     59  C         29.4510   55.6380  -37.2760 C.2   286  GLY286      0.2480
     60  O         29.2670   56.7700  -36.8170 O.2   286  GLY286     -0.2729
     61  N         29.2700   55.3720  -38.5900 N.am  287  PRO287     -0.2726
     62  CA        28.8420   56.4720  -39.4640 C.3   287  PRO287      0.1402
     63  C         27.3470   56.7760  -39.3300 C.2   287  PRO287      0.2269
     64  O         26.9520   57.9370  -39.2150 O.2   287  PRO287     -0.2865
     65  CB        29.2210   55.9740  -40.8700 C.3   287  PRO287      0.0296
     66  CG        30.3270   54.9480  -40.5940 C.3   287  PRO287      0.0237
     67  CD        29.7490   54.2400  -39.4050 C.3   287  PRO287      0.0939
@<TRIPOS>BOND
     1     6     5    1
     2    65    66    1
     3    65    62    1
     4    66    67    1
     5     7     5    1
     6     5     2    1
     7    56    54   am
     8    55    54    2
     9    54    53    1
    10    62    63    1
    11    62    61    1
    12    67    61    1
    13    63    64    2
    14     1     2    1
    15     2     3    1
    16    53    50    1
    17    61    59   am
    18    48    47    2
    19     3     4    2
    20    50    49    1
    21    50    51    1
    22    59    60    2
    23    59    58    1
    24    47    49   am
    25    47    46    1
    26    45    46    1
    27    57    51   am
    28    57    58    1
    29    15    13   ar
    30    51    52    2
    31    11    10    2
    32    12    13    1
    33    12     9    1
    34    13    14   ar
    35    29    27   am
    36    10     9    1
    37    10    16   am
    38     9     8    1
    39    25    24    2
    40    26    27    1
    41    26    23    1
    42    27    28    2
    43    17    16    1
    44    17    20    1
    45    17    18    1
    46    38    36   ar
    47    22    18   am
    48    22    23    1
    49    21    20    1
    50    18    19    2
    51    23    24    1
    52    36    37   ar
    53    36    35    1
    54    35    34    1
    55    42    41    2
    56    34    31    1
    57    40    41    1
    58    40    43    1
    59    40    39    1
    60    43    44    1
    61    31    30    1
    62    31    32    1
    63    32    33    2
