@<TRIPOS>MOLECULE
tmp/2h7yA00.pdb
 130 123 0 0 0
SMALL
GASTEIGER

@<TRIPOS>ATOM
      1  N         31.6450   50.8670   13.7970 N.3    17  TYR17      -0.1241
      2  CA        32.9320   50.2920   14.1830 C.3    17  TYR17       0.1605
      3  C         33.7260   51.2510   15.0620 C.2    17  TYR17       0.2264
      4  O         34.2680   50.8470   16.0880 O.2    17  TYR17      -0.2867
      5  CB        33.7170   49.9260   12.9190 C.3    17  TYR17       0.0534
      6  CG        35.1750   49.5420   13.1010 C.ar   17  TYR17      -0.0201
      7  CD1       36.1850   50.5080   13.0890 C.ar   17  TYR17      -0.0009
      8  CD2       35.5480   48.2100   13.2360 C.ar   17  TYR17      -0.0009
      9  CE1       37.5320   50.1450   13.2300 C.ar   17  TYR17       0.0417
     10  CE2       36.8850   47.8380   13.3800 C.ar   17  TYR17       0.0417
     11  CZ        37.8680   48.8020   13.3760 C.ar   17  TYR17       0.1957
     12  OH        39.1850   48.4170   13.5190 O.3    17  TYR17      -0.2866
     13  N         34.9670   50.8090   19.0380 N.3    21  LEU21      -0.1245
     14  CA        36.3770   50.8240   19.4290 C.3    21  LEU21       0.1561
     15  C         36.6270   51.7120   20.6430 C.2    21  LEU21       0.2260
     16  O         37.4750   51.3960   21.4740 O.2    21  LEU21      -0.2867
     17  CB        37.2720   51.2520   18.2560 C.3    21  LEU21       0.0270
     18  CG        38.1750   50.1950   17.6070 C.3    21  LEU21       0.0019
     19  CD1       39.2950   49.8390   18.5520 C.3    21  LEU21       0.0001
     20  CD2       37.4250   48.9350   17.1750 C.3    21  LEU21       0.0001
     21  N         47.7630   45.5130   15.8720 N.3    68  THR68      -0.1203
     22  CA        46.7890   45.6130   16.9590 C.3    68  THR68       0.1994
     23  C         45.5630   44.7090   16.7430 C.2    68  THR68       0.2617
     24  O         44.7780   44.4740   17.6740 O.2    68  THR68      -0.2717
     25  CB        46.3110   47.0890   17.1280 C.3    68  THR68       0.1784
     26  OG1       45.7850   47.5610   15.8880 O.3    68  THR68      -0.2211
     27  CG2       47.4820   48.0060   17.5050 C.3    68  THR68       0.0376
     28  N         45.4080   44.1980   15.5280 N.am   69  ALA69      -0.1979
     29  CA        44.1790   43.4880   15.1300 C.3    69  ALA69       0.1597
     30  C         43.9090   42.3220   16.0590 C.2    69  ALA69       0.2287
     31  O         44.8060   41.5060   16.3110 O.2    69  ALA69      -0.2864
     32  CB        44.2820   43.0220   13.6810 C.3    69  ALA69       0.0319
     33  N         52.4650   46.7600    9.7370 N.3   135  HIS135     -0.1226
     34  CA        51.3720   46.9910    8.7980 C.3   135  HIS135      0.1752
     35  C         50.1920   47.5880    9.5680 C.2   135  HIS135      0.2597
     36  O         49.7960   47.0660   10.6230 O.2   135  HIS135     -0.2718
     37  CB        50.9750   45.6690    8.1120 C.3   135  HIS135      0.0759
     38  CG        49.7200   45.7530    7.2900 C.ar  135  HIS135      0.0818
     39  ND1       48.5880   45.0260    7.5830 N.ar  135  HIS135     -0.2268
     40  CD2       49.4290   46.4600    6.1710 C.ar  135  HIS135      0.1154
     41  CE1       47.6520   45.2880    6.6860 C.ar  135  HIS135      0.1986
     42  NE2       48.1380   46.1570    5.8190 N.ar  135  HIS135     -0.2212
     43  N         49.6460   48.6850    9.0370 N.am  136  SER136     -0.1938
     44  CA        48.4820   49.3600    9.6190 C.3   136  SER136      0.2055
     45  C         48.7600   49.8030   11.0660 C.2   136  SER136      0.2643
     46  O         49.7160   50.5340   11.3030 O.2   136  SER136     -0.2714
     47  CB        47.2400   48.4660    9.4920 C.3   136  SER136      0.2130
     48  OG        46.0580   49.2280    9.7780 O.3   136  SER136     -0.2179
     49  N         47.9580   49.3590   12.0370 N.am  137  GLY137     -0.1954
     50  CA        48.2500   49.6100   13.4480 C.3   137  GLY137      0.1869
     51  C         49.6820   49.2180   13.8350 C.2   137  GLY137      0.2309
     52  O         50.3240   49.9010   14.6400 O.2   137  GLY137     -0.2863
     53  N         52.0700   52.0220   12.7520 N.3   140  LEU140     -0.1245
     54  CA        52.0810   53.0470   13.8120 C.3   140  LEU140      0.1561
     55  C         52.8960   52.6050   15.0300 C.2   140  LEU140      0.2260
     56  O         53.6750   53.3800   15.5570 O.2   140  LEU140     -0.2867
     57  CB        50.6580   53.4220   14.2390 C.3   140  LEU140      0.0270
     58  CG        49.6970   53.8350   13.1120 C.3   140  LEU140      0.0019
     59  CD1       48.3490   54.2310   13.7460 C.3   140  LEU140      0.0001
     60  CD2       50.2230   54.9580   12.2050 C.3   140  LEU140      0.0001
     61  N         47.9590   54.7610    8.5150 N.3   166  TYR166     -0.1241
     62  CA        47.0500   55.9020    8.5010 C.3   166  TYR166      0.1605
     63  C         47.2220   56.6520    9.8260 C.2   166  TYR166      0.2264
     64  O         46.5860   56.3160   10.8120 O.2   166  TYR166     -0.2867
     65  CB        45.5940   55.4340    8.2870 C.3   166  TYR166      0.0534
     66  CG        45.3300   55.0910    6.8460 C.ar  166  TYR166     -0.0201
     67  CD1       45.5160   53.7930    6.3680 C.ar  166  TYR166     -0.0009
     68  CD2       44.9700   56.0890    5.9400 C.ar  166  TYR166     -0.0009
     69  CE1       45.3050   53.4900    5.0170 C.ar  166  TYR166      0.0417
     70  CE2       44.7540   55.8070    4.6160 C.ar  166  TYR166      0.0417
     71  CZ        44.9150   54.5070    4.1540 C.ar  166  TYR166      0.1957
     72  OH        44.7040   54.2560    2.8130 O.3   166  TYR166     -0.2866
     73  N         39.9740   55.7720    6.9990 N.3   174  ILE174     -0.1245
     74  CA        39.5980   54.8990    8.1340 C.3   174  ILE174      0.1561
     75  C         38.1210   55.0450    8.5040 C.2   174  ILE174      0.2260
     76  O         37.4330   54.0520    8.8000 O.2   174  ILE174     -0.2867
     77  CB        40.4730   55.2220    9.3970 C.3   174  ILE174      0.0252
     78  CG1       41.9690   54.9780    9.1190 C.3   174  ILE174      0.0019
     79  CG2       39.9760   54.4760   10.6620 C.3   174  ILE174      0.0019
     80  CD1       42.2850   53.6300    8.4750 C.3   174  ILE174      0.0001
     81  N         36.7620   47.7860    7.1300 N.3   181  LEU181     -0.1245
     82  CA        37.8170   47.4330    8.0800 C.3   181  LEU181      0.1561
     83  C         37.2980   46.4570    9.1280 C.2   181  LEU181      0.2260
     84  O         37.9530   45.4530    9.4300 O.2   181  LEU181     -0.2867
     85  CB        38.4280   48.6900    8.7270 C.3   181  LEU181      0.0270
     86  CG        39.2170   49.5460    7.7110 C.3   181  LEU181      0.0019
     87  CD1       39.3190   51.0160    8.1040 C.3   181  LEU181      0.0001
     88  CD2       40.6110   48.9410    7.4350 C.3   181  LEU181      0.0001
     89  N         42.9600   45.2620   21.7300 N.3   201  MET201     -0.1245
     90  CA        42.9150   46.0520   20.4990 C.3   201  MET201      0.1570
     91  C         42.4050   47.4790   20.7400 C.2   201  MET201      0.2261
     92  O         42.9580   48.4320   20.1790 O.2   201  MET201     -0.2867
     93  CB        42.0740   45.3590   19.4240 C.3   201  MET201      0.0387
     94  CG        41.9590   46.1420   18.0890 C.3   201  MET201      0.0595
     95  SD        40.8620   45.3050   16.9070 S.3   201  MET201     -0.1393
     96  CE        39.2760   45.4590   17.7770 C.3   201  MET201      0.0692
     97  N         44.4530   50.9530   20.2150 N.3   205  ALA205     -0.1245
     98  CA        43.8710   52.0090   19.3750 C.3   205  ALA205      0.1562
     99  C         43.8790   53.3650   20.0830 C.2   205  ALA205      0.2260
    100  O         44.2260   54.3740   19.4810 O.2   205  ALA205     -0.2867
    101  CB        42.4410   51.6680   18.9310 C.3   205  ALA205      0.0290
    102  N         47.3330   54.9430   20.5370 N.3   208  LEU208     -0.1245
    103  CA        47.8480   55.4630   19.2830 C.3   208  LEU208      0.1561
    104  C         47.1240   56.7130   18.7960 C.2   208  LEU208      0.2260
    105  O         47.6320   57.4240   17.9240 O.2   208  LEU208     -0.2867
    106  CB        47.8330   54.3710   18.2050 C.3   208  LEU208      0.0270
    107  CG        48.8670   53.2540   18.4290 C.3   208  LEU208      0.0019
    108  CD1       48.5560   52.0280   17.5730 C.3   208  LEU208      0.0001
    109  CD2       50.2770   53.7720   18.1400 C.3   208  LEU208      0.0001
    110  N         44.3630   47.5830    1.1460 N.3   256  HIS256     -0.1226
    111  CA        44.8660   47.5990    2.5190 C.3   256  HIS256      0.1752
    112  C         45.1220   46.2120    3.1080 C.2   256  HIS256      0.2596
    113  O         46.1350   45.9970    3.7820 O.2   256  HIS256     -0.2718
    114  CB        43.8880   48.3740    3.4040 C.3   256  HIS256      0.0759
    115  CG        44.3450   48.5210    4.8150 C.ar  256  HIS256      0.0818
    116  ND1       45.3730   49.3620    5.1780 N.ar  256  HIS256     -0.2268
    117  CD2       43.9210   47.9290    5.9560 C.ar  256  HIS256      0.1154
    118  CE1       45.5600   49.2870    6.4830 C.ar  256  HIS256      0.1986
    119  NE2       44.6920   48.4220    6.9780 N.ar  256  HIS256     -0.2212
    120  N         44.2040   45.2760    2.8510 N.am  257  PHE257     -0.1976
    121  CA        44.3420   43.8880    3.3130 C.3   257  PHE257      0.1639
    122  C         45.1330   43.0080    2.3370 C.2   257  PHE257      0.2290
    123  O         46.0970   42.3370    2.7370 O.2   257  PHE257     -0.2864
    124  CB        42.9560   43.2580    3.5930 C.3   257  PHE257      0.0560
    125  CG        42.1960   43.9140    4.7270 C.ar  257  PHE257     -0.0200
    126  CD1       41.0050   44.5810    4.4850 C.ar  257  PHE257     -0.0042
    127  CD2       42.6720   43.8670    6.0330 C.ar  257  PHE257     -0.0042
    128  CE1       40.3040   45.1930    5.5180 C.ar  257  PHE257     -0.0003
    129  CE2       41.9680   44.4750    7.0800 C.ar  257  PHE257     -0.0003
    130  CZ        40.7800   45.1400    6.8150 C.ar  257  PHE257     -0.0000
@<TRIPOS>BOND
     1   110   111    1
     2   122   123    2
     3   122   121    1
     4   111   112    1
     5   111   114    1
     6    72    71    1
     7   120   112   am
     8   120   121    1
     9   112   113    2
    10   121   124    1
    11   114   115    1
    12   124   125    1
    13    71    70   ar
    14    71    69   ar
    15   126   125   ar
    16   126   128   ar
    17    70    68   ar
    18   125   127   ar
    19   115   116   ar
    20   115   117   ar
    21    69    67   ar
    22   116   118   ar
    23   128   130   ar
    24    42    40   ar
    25    42    41   ar
    26    68    66   ar
    27   117   119   ar
    28   127   129   ar
    29    40    38   ar
    30    67    66   ar
    31   118   119   ar
    32    41    39   ar
    33   130   129   ar
    34    66    65    1
    35    73    74    1
    36    81    82    1
    37    38    39   ar
    38    38    37    1
    39    88    86    1
    40    86    87    1
    41    86    85    1
    42    82    85    1
    43    82    83    1
    44    37    34    1
    45    74    75    1
    46    74    77    1
    47    65    62    1
    48    80    78    1
    49    62    61    1
    50    62    63    1
    51    75    76    2
    52    34    35    1
    53    34    33    1
    54    43    35   am
    55    43    44    1
    56    78    77    1
    57    83    84    2
    58    77    79    1
    59    47    44    1
    60    47    48    1
    61    35    36    2
    62    44    45    1
    63    63    64    2
    64    45    46    2
    65    45    49   am
    66    49    50    1
    67    60    58    1
    68    53    54    1
    69     5     6    1
    70     5     2    1
    71     7     6   ar
    72     7     9   ar
    73     6     8   ar
    74    58    59    1
    75    58    57    1
    76     9    11   ar
    77     8    10   ar
    78    11    10   ar
    79    11    12    1
    80    50    51    1
    81    32    29    1
    82     1     2    1
    83    54    57    1
    84    54    55    1
    85    51    52    2
    86     2     3    1
    87    55    56    2
    88     3     4    2
    89    29    28    1
    90    29    30    1
    91    28    23   am
    92    21    22    1
    93    26    25    1
    94    30    31    2
    95    23    22    1
    96    23    24    2
    97    95    96    1
    98    95    94    1
    99    22    25    1
   100    25    27    1
   101    20    18    1
   102   108   107    1
   103    18    17    1
   104    18    19    1
   105   105   104    2
   106    94    93    1
   107   109   107    1
   108   106   107    1
   109   106   103    1
   110    17    14    1
   111   104   103    1
   112   101    98    1
   113    13    14    1
   114   103   102    1
   115    98    99    1
   116    98    97    1
   117    93    90    1
   118    14    15    1
   119   100    99    2
   120    92    91    2
   121    90    91    1
   122    90    89    1
   123    15    16    2
