@<TRIPOS>MOLECULE
tmp/2h84A00.pdb
 160 153 0 0 0
SMALL
GASTEIGER

@<TRIPOS>ATOM
      1  N         -5.4840   -0.2760  -18.7970 N.3   146  CYS146     -0.1235
      2  CA        -5.1040    1.0700  -18.4090 C.3   146  CYS146      0.1677
      3  C         -6.1990    2.1000  -18.5740 C.2   146  CYS146      0.2270
      4  O         -6.2310    3.0790  -17.8320 O.2   146  CYS146     -0.2867
      5  CB        -3.8630    1.5130  -19.1890 C.3   146  CYS146      0.0956
      6  SG        -2.4480    0.4150  -18.9950 S.3   146  CYS146     -0.0801
      7  N         12.3860  -11.3740  -23.1390 N.3   184  ASP184     -0.1225
      8  CA        12.9630  -10.6290  -24.1880 C.3   184  ASP184      0.1805
      9  C         12.3760   -9.6430  -25.1150 C.2   184  ASP184      0.2598
     10  O         11.5270  -10.0230  -25.8380 O.2   184  ASP184     -0.2718
     11  CB        13.5980  -11.5150  -25.0780 C.3   184  ASP184      0.1424
     12  CG        14.6760  -10.8820  -25.5690 C.2   184  ASP184      0.3668
     13  OD1       14.5650   -9.6710  -25.7790 O.co2 184  ASP184     -0.2456
     14  OD2       15.6550  -11.5120  -25.6820 O.co2 184  ASP184     -0.2456
     15  N         12.9440   -8.4530  -25.1810 N.am  185  GLY185     -0.1942
     16  CA        12.4610   -7.4590  -26.0680 C.3   185  GLY185      0.2014
     17  C         12.3030   -6.2250  -25.2430 C.2   185  GLY185      0.2639
     18  O         12.1650   -6.2730  -24.0190 O.2   185  GLY185     -0.2714
     19  N         12.3520   -5.1100  -25.9530 N.am  186  GLY186     -0.1939
     20  CA        12.2700   -3.8100  -25.3410 C.3   186  GLY186      0.2014
     21  C         11.0530   -3.5460  -24.5040 C.2   186  GLY186      0.2638
     22  O         11.2240   -2.9480  -23.4550 O.2   186  GLY186     -0.2714
     23  N          9.8540   -3.9400  -24.9400 N.am  187  ASP187     -0.1971
     24  CA         8.6500   -3.6430  -24.1670 C.3   187  ASP187      0.1709
     25  C          8.7460   -4.1600  -22.7390 C.2   187  ASP187      0.2293
     26  O          8.1420   -3.5960  -21.8230 O.2   187  ASP187     -0.2864
     27  CB         7.4000   -4.2030  -24.8680 C.3   187  ASP187      0.1436
     28  CG         7.4410   -5.7150  -25.0420 C.2   187  ASP187      0.3671
     29  OD1        8.5400   -6.3050  -25.0130 O.co2 187  ASP187     -0.2456
     30  OD2        6.3580   -6.3080  -25.2170 O.co2 187  ASP187     -0.2456
     31  N         10.9440   -1.5750  -20.9420 N.3   190  VAL190     -0.1245
     32  CA        10.1380   -0.3640  -20.7900 C.3   190  VAL190      0.1561
     33  C          9.1450   -0.5170  -19.6430 C.2   190  VAL190      0.2260
     34  O          9.0960    0.3070  -18.7190 O.2   190  VAL190     -0.2867
     35  CB         9.3130   -0.0410  -22.0710 C.3   190  VAL190      0.0252
     36  CG1        8.5140    1.2390  -21.8540 C.3   190  VAL190      0.0019
     37  CG2       10.2260    0.0880  -23.2790 C.3   190  VAL190      0.0019
     38  N          8.3660    2.0140  -16.3660 N.3   194  ILE194     -0.1231
     39  CA         7.2540    2.9480  -16.1950 C.3   194  ILE194      0.1692
     40  C          6.0630    2.5690  -15.3150 C.2   194  ILE194      0.2592
     41  O          5.3810    3.4580  -14.7840 O.2   194  ILE194     -0.2718
     42  CB         6.6820    3.3420  -17.5470 C.3   194  ILE194      0.0266
     43  CG1        6.0690    2.1130  -18.2230 C.3   194  ILE194      0.0019
     44  CG2        7.7810    3.9220  -18.4090 C.3   194  ILE194      0.0020
     45  CD1        5.3320    2.4280  -19.5170 C.3   194  ILE194      0.0001
     46  N          5.7990    1.2740  -15.1580 N.am  195  PHE195     -0.1976
     47  CA         4.6520    0.8360  -14.3520 C.3   195  PHE195      0.1639
     48  C          4.8810    0.8690  -12.8520 C.2   195  PHE195      0.2290
     49  O          5.9690    0.5830  -12.3720 O.2   195  PHE195     -0.2864
     50  CB         4.2060   -0.5760  -14.7570 C.3   195  PHE195      0.0560
     51  CG         3.6360   -0.6650  -16.1520 C.ar  195  PHE195     -0.0200
     52  CD1        2.4570    0.0020  -16.4860 C.ar  195  PHE195     -0.0042
     53  CD2        4.2820   -1.4170  -17.1330 C.ar  195  PHE195     -0.0042
     54  CE1        1.9210   -0.0850  -17.7740 C.ar  195  PHE195     -0.0003
     55  CE2        3.7620   -1.5160  -18.4270 C.ar  195  PHE195     -0.0003
     56  CZ         2.5790   -0.8440  -18.7490 C.ar  195  PHE195     -0.0000
     57  N         -1.4130   -4.1680  -27.5660 N.3   233  MET233     -0.1245
     58  CA        -1.1380   -4.3400  -26.1470 C.3   233  MET233      0.1570
     59  C         -1.5570   -5.7320  -25.7040 C.2   233  MET233      0.2261
     60  O         -2.7100   -6.1080  -25.8400 O.2   233  MET233     -0.2867
     61  CB        -1.9030   -3.3050  -25.3230 C.3   233  MET233      0.0387
     62  CG        -1.4640   -1.8760  -25.5660 C.3   233  MET233      0.0595
     63  SD        -2.4320   -0.7310  -24.6250 S.3   233  MET233     -0.1393
     64  CE        -1.7570   -1.0310  -22.9310 C.3   233  MET233      0.0692
     65  N          3.8140   -4.7650  -25.5120 N.3   246  LEU246     -0.1231
     66  CA         3.5740   -3.3910  -25.9180 C.3   246  LEU246      0.1693
     67  C          4.2270   -3.0920  -27.2680 C.2   246  LEU246      0.2592
     68  O          5.4560   -3.0480  -27.3720 O.2   246  LEU246     -0.2718
     69  CB         4.1590   -2.4530  -24.8720 C.3   246  LEU246      0.0284
     70  CG         3.3160   -1.8880  -23.7530 C.3   246  LEU246      0.0019
     71  CD1        2.3470   -2.7790  -23.3430 C.3   246  LEU246      0.0001
     72  CD2        4.0830   -1.6670  -22.6010 C.3   246  LEU246      0.0001
     73  N          3.4080   -2.8580  -28.2880 N.am  247  ASP247     -0.1960
     74  CA         3.8700   -2.5710  -29.6490 C.3   247  ASP247      0.1840
     75  C          4.5440   -1.2010  -29.7560 C.2   247  ASP247      0.2621
     76  O          4.0680   -0.2240  -29.1830 O.2   247  ASP247     -0.2715
     77  CB         2.6690   -2.6080  -30.5760 C.3   247  ASP247      0.1450
     78  CG         3.0030   -3.0860  -31.9410 C.2   247  ASP247      0.3671
     79  OD1        3.4430   -4.2520  -32.0640 O.co2 247  ASP247     -0.2456
     80  OD2        2.8100   -2.2910  -32.8870 O.co2 247  ASP247     -0.2456
     81  N          5.6420   -1.1270  -30.5030 N.am  248  ALA248     -0.1977
     82  CA         6.3690    0.1350  -30.6690 C.3   248  ALA248      0.1597
     83  C          5.5370    1.2130  -31.3650 C.2   248  ALA248      0.2287
     84  O          5.8680    2.4090  -31.3040 O.2   248  ALA248     -0.2864
     85  CB         7.6370   -0.0990  -31.4430 C.3   248  ALA248      0.0319
     86  N          2.3470    1.8840  -30.6510 N.3   250  ILE250     -0.1231
     87  CA         1.3950    2.4900  -29.7400 C.3   250  ILE250      0.1678
     88  C          1.4570    4.0240  -29.6860 C.2   250  ILE250      0.2434
     89  O          0.4600    4.7010  -29.9700 O.2   250  ILE250     -0.2733
     90  CB         1.5480    1.8770  -28.3240 C.3   250  ILE250      0.0265
     91  CG1        1.1210    0.4060  -28.3680 C.3   250  ILE250      0.0019
     92  CG2        0.6780    2.6230  -27.3290 C.3   250  ILE250      0.0020
     93  CD1        1.3140   -0.3500  -27.0950 C.3   250  ILE250      0.0001
     94  N          2.6330    4.5940  -29.3670 N.am  251  PRO251     -0.2729
     95  CA         2.7630    6.0530  -29.2860 C.3   251  PRO251      0.1401
     96  C          2.1640    6.7850  -30.4610 C.2   251  PRO251      0.2269
     97  O          1.2530    7.5890  -30.3130 O.2   251  PRO251     -0.2865
     98  CB         4.2740    6.2760  -29.2020 C.3   251  PRO251      0.0296
     99  CG         4.7570    5.0050  -28.5340 C.3   251  PRO251      0.0237
    100  CD         3.9520    3.9540  -29.2520 C.3   251  PRO251      0.0939
    101  N         -4.0470   10.2370  -18.7730 N.3   287  HIS287     -0.1241
    102  CA        -3.5710    9.0230  -18.1250 C.3   287  HIS287      0.1621
    103  C         -2.0590    8.9960  -18.3330 C.2   287  HIS287      0.2264
    104  O         -1.5850    9.0170  -19.4670 O.2   287  HIS287     -0.2867
    105  CB        -4.2120    7.8020  -18.7920 C.3   287  HIS287      0.0745
    106  CG        -3.4310    6.5410  -18.6150 C.ar  287  HIS287      0.0817
    107  ND1       -3.1950    5.9850  -17.3790 N.ar  287  HIS287     -0.2268
    108  CD2       -2.8120    5.7420  -19.5170 C.ar  287  HIS287      0.1154
    109  CE1       -2.4610    4.8970  -17.5260 C.ar  287  HIS287      0.1986
    110  NE2       -2.2150    4.7270  -18.8130 N.ar  287  HIS287     -0.2212
    111  N          0.4650    7.2820  -19.0700 N.3   289  GLY289     -0.1210
    112  CA         0.9670    6.0330  -19.6210 C.3   289  GLY289      0.1956
    113  C          2.4630    5.9420  -19.8840 C.2   289  GLY289      0.2612
    114  O          3.0620    4.8670  -19.7230 O.2   289  GLY289     -0.2717
    115  N          3.0610    7.0550  -20.3080 N.am  290  GLY290     -0.1942
    116  CA         4.4850    7.0770  -20.6010 C.3   290  GLY290      0.2014
    117  C          4.8740    8.3980  -21.2280 C.2   290  GLY290      0.2639
    118  O          3.9980    9.1130  -21.6920 O.2   290  GLY290     -0.2714
    119  N          6.1650    8.7330  -21.2380 N.am  291  LYS291     -0.1963
    120  CA         6.6190   10.0000  -21.8090 C.3   291  LYS291      0.1728
    121  C          6.3740   10.1460  -23.3160 C.2   291  LYS291      0.2617
    122  O          5.9320   11.2020  -23.7790 O.2   291  LYS291     -0.2715
    123  CB         8.1040   10.2230  -21.4970 C.3   291  LYS291      0.0311
    124  CG         9.0150    9.0410  -21.7880 C.3   291  LYS291      0.0038
    125  CD         9.8150    9.2280  -23.0670 C.3   291  LYS291      0.0206
    126  CE        10.7240    8.0220  -23.3210 C.3   291  LYS291      0.1093
    127  NZ         9.9740    6.7260  -23.4680 N.3   291  LYS291     -0.1314
    128  N          6.6460    9.0830  -24.0720 N.am  292  SER292     -0.1936
    129  CA         6.4560    9.0990  -25.5120 C.3   292  SER292      0.2055
    130  C          4.9960    9.3580  -25.8030 C.2   292  SER292      0.2642
    131  O          4.6700   10.1790  -26.6410 O.2   292  SER292     -0.2714
    132  CB         6.8520    7.7640  -26.1250 C.3   292  SER292      0.2130
    133  OG         7.9030    7.1790  -25.3890 O.3   292  SER292     -0.2179
    134  N          4.1070    8.6570  -25.1160 N.am  293  ILE293     -0.1977
    135  CA         2.6820    8.8610  -25.3460 C.3   293  ILE293      0.1596
    136  C          2.2370   10.3030  -25.0440 C.2   293  ILE293      0.2287
    137  O          1.5530   10.9350  -25.8560 O.2   293  ILE293     -0.2864
    138  CB         1.8490    7.8910  -24.4810 C.3   293  ILE293      0.0276
    139  CG1        2.1190    6.4450  -24.8920 C.3   293  ILE293      0.0022
    140  CG2        0.3770    8.1710  -24.6440 C.3   293  ILE293      0.0022
    141  CD1        1.5100    6.0810  -26.2060 C.3   293  ILE293      0.0001
    142  N          3.2500    5.0260  -14.3720 N.3   320  ASN320     -0.1240
    143  CA         1.9930    4.5070  -14.8970 C.3   320  ASN320      0.1653
    144  C          1.3760    3.4710  -13.9500 C.2   320  ASN320      0.2266
    145  O          1.8790    2.3700  -13.8370 O.2   320  ASN320     -0.2867
    146  CB         2.2240    3.8730  -16.2620 C.3   320  ASN320      0.1155
    147  CG         0.9500    3.3590  -16.8730 C.2   320  ASN320      0.2627
    148  OD1        0.9600    2.7600  -17.9420 O.2   320  ASN320     -0.2716
    149  ND2       -0.1680    3.5930  -16.1940 N.am  320  ASN320     -0.0877
    150  N         -6.1490    5.5450  -22.7120 N.3   348  PHE348     -0.1241
    151  CA        -6.1200    4.5710  -23.8010 C.3   348  PHE348      0.1605
    152  C         -5.6580    3.2660  -23.2350 C.2   348  PHE348      0.2264
    153  O         -4.8880    3.2260  -22.2640 O.2   348  PHE348     -0.2867
    154  CB        -5.1410    5.0200  -24.8900 C.3   348  PHE348      0.0534
    155  CG        -4.4640    6.3230  -24.5860 C.ar  348  PHE348     -0.0203
    156  CD1       -5.0660    7.5400  -24.9730 C.ar  348  PHE348     -0.0042
    157  CD2       -3.3570    6.3560  -23.7130 C.ar  348  PHE348     -0.0042
    158  CE1       -4.5180    8.7580  -24.5840 C.ar  348  PHE348     -0.0003
    159  CE2       -2.8020    7.5580  -23.3130 C.ar  348  PHE348     -0.0003
    160  CZ        -3.4000    8.7700  -23.7070 C.ar  348  PHE348     -0.0000
@<TRIPOS>BOND
     1    80    78   ar
     2    79    78   ar
     3    78    77    1
     4    85    82    1
     5    83    84    2
     6    83    82    1
     7    82    81    1
     8    86    87    1
     9    77    74    1
    10    81    75   am
    11    96    97    2
    12    96    95    1
    13    89    88    2
    14    75    74    1
    15    75    76    2
    16    87    88    1
    17    87    90    1
    18    88    94   am
    19    74    73    1
    20    94    95    1
    21    94   100    1
    22    95    98    1
    23   100    99    1
    24    98    99    1
    25    91    90    1
    26    91    93    1
    27    90    92    1
    28    73    67   am
    29    57    58    1
    30    68    67    2
    31    67    66    1
    32   131   130    2
    33   141   139    1
    34    58    59    1
    35    58    61    1
    36   132   129    1
    37   132   133    1
    38    16    17    1
    39    16    15    1
    40    19    20    1
    41    19    17   am
    42    66    65    1
    43    66    69    1
    44   137   136    2
    45    60    59    2
    46    10     9    2
    47   130   129    1
    48   130   134   am
    49    13    12   ar
    50    14    12   ar
    51    12    11    1
    52    62    61    1
    53    62    63    1
    54   129   128    1
    55   135   134    1
    56   135   136    1
    57   135   138    1
    58    20    21    1
    59    17    18    2
    60    30    28   ar
    61    15     9   am
    62     9     8    1
    63    11     8    1
    64    28    29   ar
    65    28    27    1
    66   156   155   ar
    67   156   158   ar
    68    23    21   am
    69    23    24    1
    70   139   138    1
    71   154   155    1
    72   154   151    1
    73    69    70    1
    74    27    24    1
    75   140   138    1
    76    63    64    1
    77   155   157   ar
    78   158   160   ar
    79    21    22    2
    80     8     7    1
    81    24    25    1
    82   128   121   am
    83   151   152    1
    84   151   150    1
    85   122   121    2
    86    70    71    1
    87    70    72    1
    88   157   159   ar
    89   160   159   ar
    90   127   126    1
    91   126   125    1
    92   121   120    1
    93    37    35    1
    94   152   153    2
    95   125   124    1
    96    25    26    2
    97    35    36    1
    98    35    32    1
    99   120   123    1
   100   120   119    1
   101   124   123    1
   102   118   117    2
   103   119   117   am
   104   117   116    1
   105    31    32    1
   106    32    33    1
   107   116   115    1
   108   115   113   am
   109   113   114    2
   110   113   112    1
   111    33    34    2
   112   112   111    1
   113    45    43    1
   114   108   110   ar
   115   108   106   ar
   116   104   103    2
   117     5     6    1
   118     5     2    1
   119   110   109   ar
   120     1     2    1
   121   105   106    1
   122   105   102    1
   123   101   102    1
   124    56    55   ar
   125    56    54   ar
   126   106   107   ar
   127     3     2    1
   128     3     4    2
   129    55    53   ar
   130    44    42    1
   131   103   102    1
   132    43    42    1
   133   148   147    2
   134    54    52   ar
   135    42    39    1
   136   109   107   ar
   137    53    51   ar
   138   147   146    1
   139   147   149   am
   140    52    51   ar
   141    38    39    1
   142   146   143    1
   143    39    40    1
   144    51    50    1
   145    40    46   am
   146    40    41    2
   147    46    47    1
   148   143   142    1
   149   143   144    1
   150    50    47    1
   151    47    48    1
   152   144   145    2
   153    48    49    2
