@<TRIPOS>MOLECULE
tmp/2h88D01.pdb
 74 69 0 0 0
SMALL
GASTEIGER

@<TRIPOS>ATOM
      1  N          8.0050   -7.6330   20.7080 N.3    22  LEU22      -0.1245
      2  CA         9.2410   -8.2380   20.2090 C.3    22  LEU22       0.1561
      3  C          9.6760   -9.4090   21.1040 C.2    22  LEU22       0.2260
      4  O          9.8730  -10.5230   20.6210 O.2    22  LEU22      -0.2867
      5  CB        10.3630   -7.1980   20.1240 C.3    22  LEU22       0.0270
      6  CG        10.1210   -6.0740   19.1140 C.3    22  LEU22       0.0019
      7  CD1       11.3860   -5.2210   19.0140 C.3    22  LEU22       0.0001
      8  CD2        9.7470   -6.6640   17.7420 C.3    22  LEU22       0.0001
      9  N          7.3020  -12.2380   21.0560 N.3    25  ALA25      -0.1231
     10  CA         7.3740  -13.0090   19.8190 C.3    25  ALA25       0.1694
     11  C          8.4380  -14.0980   19.9850 C.2    25  ALA25       0.2592
     12  O          8.3300  -15.1900   19.4280 O.2    25  ALA25      -0.2718
     13  CB         7.7300  -12.1090   18.6430 C.3    25  ALA25       0.0304
     14  N          9.4600  -13.7880   20.7690 N.am   26  TYR26      -0.1976
     15  CA        10.5330  -14.7260   21.0100 C.3    26  TYR26       0.1639
     16  C         10.1960  -15.7270   22.1170 C.2    26  TYR26       0.2290
     17  O         10.6180  -16.8750   22.0620 O.2    26  TYR26      -0.2864
     18  CB        11.7930  -13.9660   21.3790 C.3    26  TYR26       0.0560
     19  CG        12.9770  -14.8550   21.6280 C.ar   26  TYR26      -0.0198
     20  CD1       13.6540  -15.4610   20.5690 C.ar   26  TYR26      -0.0009
     21  CD2       13.4340  -15.0820   22.9270 C.ar   26  TYR26      -0.0009
     22  CE1       14.7680  -16.2710   20.8000 C.ar   26  TYR26       0.0417
     23  CE2       14.5460  -15.8880   23.1710 C.ar   26  TYR26       0.0417
     24  CZ        15.2090  -16.4780   22.1080 C.ar   26  TYR26       0.1957
     25  OH        16.3140  -17.2590   22.3590 O.3    26  TYR26      -0.2866
     26  N          5.7730  -17.4900   20.7590 N.3    29  PRO29      -0.2116
     27  CA         5.3700  -17.5430   19.3420 C.3    29  PRO29       0.1372
     28  C          3.9780  -18.1580   19.2620 C.2    29  PRO29       0.2244
     29  O          3.6890  -19.1170   19.9750 O.2    29  PRO29      -0.2868
     30  CB         6.4020  -18.4720   18.7170 C.3    29  PRO29       0.0268
     31  CG         7.5830  -18.3720   19.6330 C.3    29  PRO29       0.0207
     32  CD         6.9740  -18.3050   21.0010 C.3    29  PRO29       0.0892
     33  N          0.7410   -8.4940   16.5460 N.3    37  LEU37      -0.1245
     34  CA         1.7490   -7.8320   15.7370 C.3    37  LEU37       0.1561
     35  C          1.1320   -7.2930   14.4600 C.2    37  LEU37       0.2260
     36  O          1.5020   -6.2150   13.9830 O.2    37  LEU37      -0.2867
     37  CB         2.8810   -8.7970   15.3500 C.3    37  LEU37       0.0270
     38  CG         4.0260   -8.9710   16.3480 C.3    37  LEU37       0.0019
     39  CD1        4.9740  -10.0510   15.8280 C.3    37  LEU37       0.0001
     40  CD2        4.7910   -7.6480   16.5450 C.3    37  LEU37       0.0001
     41  N          1.7390   -3.4710   14.0870 N.3    41  LEU41      -0.1245
     42  CA         2.5790   -3.0600   12.9790 C.3    41  LEU41       0.1561
     43  C          1.7870   -2.1930   12.0080 C.2    41  LEU41       0.2260
     44  O          2.3050   -1.2200   11.4670 O.2    41  LEU41      -0.2867
     45  CB         3.1320   -4.2590   12.2170 C.3    41  LEU41       0.0270
     46  CG         4.2880   -5.0030   12.8740 C.3    41  LEU41       0.0019
     47  CD1        4.5180   -6.3430   12.1410 C.3    41  LEU41       0.0001
     48  CD2        5.5320   -4.1250   12.8340 C.3    41  LEU41       0.0001
     49  N          3.3730  -14.8930   11.2080 N.3    91  ILE91      -0.1231
     50  CA         4.5650  -14.0540   11.3490 C.3    91  ILE91       0.1692
     51  C          5.7620  -14.6290   12.1270 C.2    91  ILE91       0.2592
     52  O          6.8660  -14.6870   11.5910 O.2    91  ILE91      -0.2718
     53  CB         4.1920  -12.6600   11.9520 C.3    91  ILE91       0.0266
     54  CG1        3.3110  -11.9040   10.9640 C.3    91  ILE91       0.0019
     55  CG2        5.4620  -11.8500   12.2550 C.3    91  ILE91       0.0020
     56  CD1        2.7340  -10.6340   11.5460 C.3    91  ILE91       0.0001
     57  N          5.5500  -15.0600   13.3700 N.am   92  CYS92      -0.1970
     58  CA         6.6440  -15.5970   14.1750 C.3    92  CYS92       0.1712
     59  C          7.3930  -16.7390   13.4830 C.2    92  CYS92       0.2296
     60  O          8.6210  -16.6870   13.3230 O.2    92  CYS92      -0.2864
     61  CB         6.1150  -16.0800   15.5280 C.3    92  CYS92       0.0983
     62  SG         5.2720  -14.7790   16.4940 S.3    92  CYS92      -0.0798
     63  N          9.5150  -15.7710   10.4550 N.3    95  VAL95      -0.1231
     64  CA        10.7830  -15.1580   10.7860 C.3    95  VAL95       0.1692
     65  C         11.8090  -16.2450   11.1950 C.2    95  VAL95       0.2591
     66  O         12.9680  -16.2030   10.7880 O.2    95  VAL95      -0.2718
     67  CB        10.5930  -14.0790   11.9000 C.3    95  VAL95       0.0266
     68  CG1       11.9370  -13.4780   12.2890 C.3    95  VAL95       0.0020
     69  CG2        9.6910  -12.9720   11.3670 C.3    95  VAL95       0.0020
     70  N         11.3590  -17.2180   11.9760 N.am   96  ALA96      -0.1980
     71  CA        12.2360  -18.3110   12.3920 C.3    96  ALA96       0.1597
     72  C         12.7090  -19.0800   11.1470 C.2    96  ALA96       0.2287
     73  O         13.8840  -19.3800   11.0300 O.2    96  ALA96      -0.2864
     74  CB        11.4850  -19.2440   13.3690 C.3    96  ALA96       0.0319
@<TRIPOS>BOND
     1    63    64    1
     2    64    65    1
     3    64    67    1
     4    66    65    2
     5    54    56    1
     6    54    53    1
     7    73    72    2
     8    72    71    1
     9    65    70   am
    10    49    50    1
    11    50    53    1
    12    50    51    1
    13    69    67    1
    14    44    43    2
    15    52    51    2
    16    67    68    1
    17    53    55    1
    18    70    71    1
    19    43    42    1
    20    51    57   am
    21    47    46    1
    22    45    46    1
    23    45    42    1
    24    71    74    1
    25    48    46    1
    26    42    41    1
    27    60    59    2
    28    57    58    1
    29    59    58    1
    30    36    35    2
    31    58    61    1
    32    35    34    1
    33    37    34    1
    34    37    38    1
    35    61    62    1
    36    34    33    1
    37    39    38    1
    38    38    40    1
    39     8     6    1
    40    13    10    1
    41    30    27    1
    42    30    31    1
    43     7     6    1
    44     6     5    1
    45    28    27    1
    46    28    29    2
    47    27    26    1
    48    12    11    2
    49    31    32    1
    50    10    11    1
    51    10     9    1
    52    11    14   am
    53     5     2    1
    54     2     1    1
    55     2     3    1
    56    20    22   ar
    57    20    19   ar
    58     4     3    2
    59    26    32    1
    60    14    15    1
    61    22    24   ar
    62    15    18    1
    63    15    16    1
    64    18    19    1
    65    19    21   ar
    66    17    16    2
    67    24    25    1
    68    24    23   ar
    69    21    23   ar
