@<TRIPOS>MOLECULE
tmp/2h8hA00.pdb
 166 154 0 0 0
SMALL
GASTEIGER

@<TRIPOS>ATOM
      1  N         25.5440   18.0720   49.1920 N.3   187  VAL187     -0.1245
      2  CA        25.5190   17.0880   50.2720 C.3   187  VAL187      0.1561
      3  C         24.1170   17.0160   50.8690 C.2   187  VAL187      0.2260
      4  O         23.5950   18.0090   51.3520 O.2   187  VAL187     -0.2867
      5  CB        26.5820   17.4390   51.3640 C.3   187  VAL187      0.0252
      6  CG1       26.4270   16.5860   52.6070 C.3   187  VAL187      0.0019
      7  CG2       27.9870   17.2230   50.8270 C.3   187  VAL187      0.0019
      8  N         21.4680   16.3870   53.5350 N.3   189  LEU189     -0.1231
      9  CA        21.4600   16.5470   54.9860 C.3   189  LEU189      0.1693
     10  C         20.2870   15.8080   55.6180 C.2   189  LEU189      0.2592
     11  O         20.3390   15.4510   56.7990 O.2   189  LEU189     -0.2718
     12  CB        21.3620   18.0360   55.3420 C.3   189  LEU189      0.0284
     13  CG        22.4650   18.9820   54.8310 C.3   189  LEU189      0.0019
     14  CD1       22.1630   20.4580   55.0900 C.3   189  LEU189      0.0001
     15  CD2       23.7440   18.6280   55.4530 C.3   189  LEU189      0.0001
     16  N         19.2180   15.5910   54.8490 N.am  190  GLY190     -0.1957
     17  CA        17.9980   15.0170   55.4010 C.3   190  GLY190      0.1869
     18  C         16.9670   14.6960   54.3520 C.2   190  GLY190      0.2309
     19  O         17.0030   15.2360   53.2650 O.2   190  GLY190     -0.2863
     20  N         16.5510   18.0580   52.5440 N.3   197  VAL197     -0.1245
     21  CA        17.4130   19.1970   52.8090 C.3   197  VAL197      0.1561
     22  C         18.8070   18.8510   52.2760 C.2   197  VAL197      0.2260
     23  O         19.2900   17.7640   52.4980 O.2   197  VAL197     -0.2867
     24  CB        17.4820   19.5180   54.3140 C.3   197  VAL197      0.0252
     25  CG1       18.3400   20.7510   54.5770 C.3   197  VAL197      0.0019
     26  CG2       16.0820   19.7410   54.8670 C.3   197  VAL197      0.0019
     27  N         21.7660   26.3940   52.6320 N.3   209  ALA209     -0.1245
     28  CA        20.9360   25.2040   52.8230 C.3   209  ALA209      0.1562
     29  C         19.7190   25.2840   51.9120 C.2   209  ALA209      0.2260
     30  O         19.1020   26.3550   51.7500 O.2   209  ALA209     -0.2867
     31  CB        20.4810   25.1020   54.2540 C.3   209  ALA209      0.0290
     32  N         16.0330   23.3980   50.9770 N.3   211  LYS211     -0.1245
     33  CA        14.9800   22.4230   51.2240 C.3   211  LYS211      0.1561
     34  C         14.1080   22.3610   49.9700 C.2   211  LYS211      0.2260
     35  O         13.7520   23.3980   49.4280 O.2   211  LYS211     -0.2867
     36  CB        14.1440   22.8340   52.4430 C.3   211  LYS211      0.0271
     37  CG        13.0380   21.8220   52.7830 C.3   211  LYS211      0.0035
     38  CD        12.5080   22.0800   54.1460 C.3   211  LYS211      0.0206
     39  CE        11.7650   20.9030   54.7660 C.3   211  LYS211      0.1093
     40  NZ        11.8730   21.0040   56.2950 N.3   211  LYS211     -0.1314
     41  N         16.5590   31.2210   61.9350 N.3   239  VAL239     -0.1245
     42  CA        17.3490   30.9870   60.7230 C.3   239  VAL239      0.1561
     43  C         16.8150   31.8640   59.5480 C.2   239  VAL239      0.2260
     44  O         15.5990   31.8700   59.2580 O.2   239  VAL239     -0.2867
     45  CB        17.3700   29.5040   60.3630 C.3   239  VAL239      0.0252
     46  CG1       18.2050   29.2850   59.1370 C.3   239  VAL239      0.0019
     47  CG2       17.9760   28.6550   61.5200 C.3   239  VAL239      0.0019
     48  N         13.4150   26.1470   49.1320 N.3   252  ILE252     -0.1245
     49  CA        13.5070   27.1180   50.2110 C.3   252  ILE252      0.1561
     50  C         14.9890   27.2170   50.4940 C.2   252  ILE252      0.2260
     51  O         15.6270   26.2320   50.8880 O.2   252  ILE252     -0.2867
     52  CB        12.6870   26.6400   51.4480 C.3   252  ILE252      0.0252
     53  CG1       11.2340   26.4270   51.0370 C.3   252  ILE252      0.0019
     54  CG2       12.7060   27.6360   52.6050 C.3   252  ILE252      0.0019
     55  CD1       10.5580   25.4070   51.8870 C.3   252  ILE252      0.0001
     56  N         18.1070   29.0270   52.4470 N.3   254  THR254     -0.1203
     57  CA        18.3850   29.6730   53.7200 C.3   254  THR254      0.1994
     58  C         19.8650   29.6400   54.0810 C.2   254  THR254      0.2618
     59  O         20.6960   28.9730   53.4350 O.2   254  THR254     -0.2717
     60  CB        17.6110   28.9950   54.9310 C.3   254  THR254      0.1784
     61  OG1       18.2810   27.8000   55.3330 O.3   254  THR254     -0.2211
     62  CG2       16.1770   28.6340   54.6100 C.3   254  THR254      0.0376
     63  N         20.1600   30.3980   55.1300 N.am  255  GLU255     -0.1965
     64  CA        21.3480   30.2400   55.9670 C.3   255  GLU255      0.1733
     65  C         21.6940   28.7570   56.2360 C.2   255  GLU255      0.2616
     66  O         20.8450   27.9810   56.6050 O.2   255  GLU255     -0.2715
     67  CB        21.0440   30.9600   57.2950 C.3   255  GLU255      0.0429
     68  CG        22.1650   31.0410   58.3090 C.3   255  GLU255      0.1163
     69  CD        21.7910   31.8320   59.5680 C.2   255  GLU255      0.3649
     70  OE1       22.7140   32.0370   60.3550 O.co2 255  GLU255     -0.2457
     71  OE2       20.6170   32.2690   59.7780 O.co2 255  GLU255     -0.2457
     72  N         22.9520   28.3910   56.0690 N.am  256  TYR256     -0.1960
     73  CA        23.4500   27.0550   56.4130 C.3   256  TYR256      0.1771
     74  C         23.9740   27.0610   57.8630 C.2   256  TYR256      0.2619
     75  O         24.7620   27.9190   58.2380 O.2   256  TYR256     -0.2715
     76  CB        24.5610   26.6620   55.4440 C.3   256  TYR256      0.0574
     77  CG        25.2560   25.3840   55.7700 C.ar  256  TYR256     -0.0198
     78  CD1       24.6780   24.1790   55.4750 C.ar  256  TYR256     -0.0009
     79  CD2       26.5140   25.3810   56.3700 C.ar  256  TYR256     -0.0009
     80  CE1       25.3090   23.0090   55.7760 C.ar  256  TYR256      0.0417
     81  CE2       27.1430   24.2080   56.6760 C.ar  256  TYR256      0.0417
     82  CZ        26.5360   23.0250   56.3750 C.ar  256  TYR256      0.1957
     83  OH        27.1540   21.8210   56.6580 O.3   256  TYR256     -0.2866
     84  N         23.5200   26.1200   58.6790 N.am  257  MET257     -0.1963
     85  CA        23.9040   26.0780   60.0940 C.3   257  MET257      0.1736
     86  C         24.9240   24.9800   60.3120 C.2   257  MET257      0.2617
     87  O         24.5960   23.8250   60.1490 O.2   257  MET257     -0.2715
     88  CB        22.6740   25.8400   60.9420 C.3   257  MET257      0.0427
     89  CG        21.6290   26.9360   60.8150 C.3   257  MET257      0.0599
     90  SD        22.2100   28.5140   61.4300 S.3   257  MET257     -0.1393
     91  CE        22.3710   28.1410   63.1810 C.3   257  MET257      0.0692
     92  N         26.1560   25.3480   60.6780 N.am  258  SER258     -0.1936
     93  CA        27.3160   24.4200   60.5770 C.3   258  SER258      0.2055
     94  C         27.2730   23.1330   61.3880 C.2   258  SER258      0.2643
     95  O         27.7870   22.0950   60.9340 O.2   258  SER258     -0.2714
     96  CB        28.6460   25.1450   60.8800 C.3   258  SER258      0.2130
     97  OG        28.6810   25.6560   62.2080 O.3   258  SER258     -0.2179
     98  N         26.6790   23.1860   62.5730 N.am  259  LYS259     -0.1963
     99  CA        26.6110   22.0250   63.4490 C.3   259  LYS259      0.1728
    100  C         25.2980   21.2020   63.3580 C.2   259  LYS259      0.2617
    101  O         25.1790   20.1570   63.9900 O.2   259  LYS259     -0.2715
    102  CB        26.9230   22.4680   64.8900 C.3   259  LYS259      0.0311
    103  CG        28.2700   23.3000   65.0090 C.3   259  LYS259      0.0038
    104  CD        29.5390   22.4420   64.5990 C.3   259  LYS259      0.0206
    105  CE        30.7780   23.2750   64.0150 C.3   259  LYS259      0.1093
    106  NZ        31.5320   22.5840   62.8540 N.3   259  LYS259     -0.1314
    107  N         24.3380   21.6500   62.5600 N.am  260  GLY260     -0.1940
    108  CA        23.1180   20.8890   62.2990 C.3   260  GLY260      0.2014
    109  C         22.0000   21.0010   63.3360 C.2   260  GLY260      0.2639
    110  O         21.8890   21.9950   64.0710 O.2   260  GLY260     -0.2714
    111  N         21.1400   19.9810   63.3940 N.am  261  SER261     -0.1949
    112  CA        19.9970   20.0400   64.3020 C.3   261  SER261      0.1924
    113  C         20.4220   19.8200   65.7510 C.2   261  SER261      0.2314
    114  O         21.3310   19.0050   66.0420 O.2   261  SER261     -0.2863
    115  CB        18.9780   18.9550   63.9880 C.3   261  SER261      0.2116
    116  OG        19.4440   17.7640   64.5950 O.3   261  SER261     -0.2180
    117  N         20.2460   15.8890   66.9670 N.3   264  ASP264     -0.1239
    118  CA        21.5010   15.1380   66.8030 C.3   264  ASP264      0.1674
    119  C         22.6630   15.6620   67.6610 C.2   264  ASP264      0.2266
    120  O         23.5170   14.8930   68.0660 O.2   264  ASP264     -0.2867
    121  CB        21.9570   15.1830   65.3430 C.3   264  ASP264      0.1410
    122  CG        20.9160   14.6350   64.3850 C.2   264  ASP264      0.3668
    123  OD1       20.3160   13.5870   64.7280 O.co2 264  ASP264     -0.2456
    124  OD2       20.7190   15.2410   63.2880 O.co2 264  ASP264     -0.2456
    125  N         14.3030   18.9220   66.5600 N.3   306  ALA306     -0.1231
    126  CA        14.7550   18.6180   65.1930 C.3   306  ALA306      0.1694
    127  C         14.7160   19.8760   64.3170 C.2   306  ALA306      0.2592
    128  O         15.4760   19.9890   63.3390 O.2   306  ALA306     -0.2718
    129  CB        13.8960   17.4950   64.5800 C.3   306  ALA306      0.0304
    130  N         13.8180   20.8090   64.6680 N.am  307  ASN307     -0.1974
    131  CA        13.6700   22.1130   63.9870 C.3   307  ASN307      0.1688
    132  C         14.4160   23.3010   64.6590 C.2   307  ASN307      0.2292
    133  O         14.1470   24.4930   64.3890 O.2   307  ASN307     -0.2864
    134  CB        12.1880   22.4200   63.8090 C.3   307  ASN307      0.1181
    135  CG        11.5740   21.6340   62.6450 C.2   307  ASN307      0.2629
    136  OD1       12.2700   21.2910   61.7160 O.2   307  ASN307     -0.2716
    137  ND2       10.2850   21.3770   62.6950 N.am  307  ASN307     -0.0877
    138  N         18.3590   24.5650   64.9910 N.3   309  LEU309     -0.1245
    139  CA        19.6720   24.3580   64.4000 C.3   309  LEU309      0.1561
    140  C         20.7580   25.0680   65.1810 C.2   309  LEU309      0.2260
    141  O         20.5200   26.0800   65.8160 O.2   309  LEU309     -0.2867
    142  CB        19.6720   24.7940   62.9320 C.3   309  LEU309      0.0270
    143  CG        18.5900   24.1270   62.0530 C.3   309  LEU309      0.0019
    144  CD1       18.5410   24.7850   60.6940 C.3   309  LEU309      0.0001
    145  CD2       18.8700   22.6410   61.9030 C.3   309  LEU309      0.0001
    146  N         14.2480   27.0500   63.1710 N.3   319  ALA319     -0.1231
    147  CA        14.1580   26.7850   61.7260 C.3   319  ALA319      0.1694
    148  C         12.7560   26.3560   61.3670 C.2   319  ALA319      0.2592
    149  O         11.9470   26.0390   62.2480 O.2   319  ALA319     -0.2718
    150  CB        15.1190   25.7050   61.3320 C.3   319  ALA319      0.0304
    151  N         12.4740   26.4030   60.0670 N.am  320  ASP320     -0.1974
    152  CA        11.3120   25.7540   59.4730 C.3   320  ASP320      0.1709
    153  C          9.9850   26.4890   59.6540 C.2   320  ASP320      0.2293
    154  O          8.9230   25.8950   59.5020 O.2   320  ASP320     -0.2864
    155  CB        11.1700   24.3400   60.0260 C.3   320  ASP320      0.1436
    156  CG        10.4060   23.4300   59.1030 C.2   320  ASP320      0.3671
    157  OD1       10.5900   23.5280   57.8720 O.co2 320  ASP320     -0.2456
    158  OD2        9.6130   22.6140   59.6200 O.co2 320  ASP320     -0.2456
    159  N          6.0630   26.7600   57.0850 N.3   323  LEU323     -0.1245
    160  CA         5.6730   25.6360   56.2240 C.3   323  LEU323      0.1561
    161  C          4.4510   24.8090   56.6420 C.2   323  LEU323      0.2260
    162  O          3.6430   24.4110   55.7860 O.2   323  LEU323     -0.2867
    163  CB         6.8440   24.6610   56.0430 C.3   323  LEU323      0.0270
    164  CG         7.9060   24.9870   55.0000 C.3   323  LEU323      0.0019
    165  CD1        8.5650   23.6700   54.5700 C.3   323  LEU323      0.0001
    166  CD2        7.3340   25.7600   53.8020 C.3   323  LEU323      0.0001
@<TRIPOS>BOND
     1    48    49    1
     2     1     2    1
     3    35    34    2
     4    34    33    1
     5    49    50    1
     6    49    52    1
     7     2     3    1
     8     2     5    1
     9    50    51    2
    10     7     5    1
    11     3     4    2
    12    32    33    1
    13    53    52    1
    14    53    55    1
    15    33    36    1
    16     5     6    1
    17    52    54    1
    18    30    29    2
    19    29    28    1
    20    22    23    2
    21    22    21    1
    22    36    37    1
    23    56    57    1
    24    20    21    1
    25    27    28    1
    26    37    38    1
    27    21    24    1
    28    28    31    1
    29    19    18    2
    30    59    58    2
    31     8     9    1
    32    57    58    1
    33    57    60    1
    34   166   164    1
    35    58    63   am
    36    38    39    1
    37    24    25    1
    38    24    26    1
    39    18    17    1
    40   165   164    1
    41    62    60    1
    42    39    40    1
    43    13    14    1
    44    13    12    1
    45    13    15    1
    46    16    17    1
    47    16    10   am
    48    60    61    1
    49     9    12    1
    50     9    10    1
    51   164   163    1
    52    63    64    1
    53    76    77    1
    54    76    73    1
    55    78    77   ar
    56    78    80   ar
    57    10    11    2
    58    77    79   ar
    59    80    82   ar
    60   162   161    2
    61    64    65    1
    62    64    67    1
    63   163   160    1
    64    72    65   am
    65    72    73    1
    66   160   161    1
    67   160   159    1
    68    65    66    2
    69    79    81   ar
    70    82    83    1
    71    82    81   ar
    72    73    74    1
    73    67    68    1
    74    74    75    2
    75    74    84   am
    76   157   156   ar
    77    68    69    1
    78    84    85    1
    79   156   158   ar
    80   156   155    1
    81    46    45    1
    82    44    43    2
    83   152   153    1
    84   152   155    1
    85   152   151    1
    86   154   153    2
    87    43    42    1
    88    69    71   ar
    89    69    70   ar
    90   151   148   am
    91    85    86    1
    92    85    88    1
    93    87    86    2
    94    86    92   am
    95    45    42    1
    96    45    47    1
    97    93    92    1
    98    93    96    1
    99    93    94    1
   100   144   143    1
   101    42    41    1
   102    89    88    1
   103    89    90    1
   104    96    97    1
   105    95    94    2
   106   150   147    1
   107   148   147    1
   108   148   149    2
   109    94    98   am
   110    90    91    1
   111   136   135    2
   112   147   146    1
   113   145   143    1
   114   143   142    1
   115   108   107    1
   116   108   109    1
   117   107   100   am
   118    98    99    1
   119   135   137   am
   120   135   134    1
   121   106   105    1
   122   142   139    1
   123   124   122   ar
   124   109   111   am
   125   109   110    2
   126   128   127    2
   127   100    99    1
   128   100   101    2
   129   111   112    1
   130    99   102    1
   131   134   131    1
   132   131   132    1
   133   131   130    1
   134   115   112    1
   135   115   116    1
   136   105   104    1
   137   112   113    1
   138   127   130   am
   139   127   126    1
   140   122   123   ar
   141   122   121    1
   142   133   132    2
   143   139   138    1
   144   139   140    1
   145   129   126    1
   146   104   103    1
   147   102   103    1
   148   140   141    2
   149   126   125    1
   150   121   118    1
   151   113   114    2
   152   118   117    1
   153   118   119    1
   154   119   120    2
