@<TRIPOS>MOLECULE
tmp/2h8iA00.pdb
 117 111 0 0 0
SMALL
GASTEIGER

@<TRIPOS>ATOM
      1  N         -7.6810   24.4980   58.2910 N.3     2  LEU2       -0.1245
      2  CA        -7.0960   24.9990   57.0740 C.3     2  LEU2        0.1561
      3  C         -8.1840   25.4340   56.1030 C.2     2  LEU2        0.2260
      4  O         -7.9660   26.3580   55.3360 O.2     2  LEU2       -0.2867
      5  CB        -6.1890   23.9480   56.4230 C.3     2  LEU2        0.0270
      6  CG        -4.6550   23.9860   56.3970 C.3     2  LEU2        0.0019
      7  CD1       -3.9690   24.8120   57.4150 C.3     2  LEU2        0.0001
      8  CD2       -4.0660   22.5440   56.4620 C.3     2  LEU2        0.0001
      9  N         -9.2390   28.8920   57.2450 N.3     5  LEU5       -0.1245
     10  CA        -8.1230   29.7960   57.0240 C.3     5  LEU5        0.1561
     11  C         -7.9690   30.1550   55.5380 C.2     5  LEU5        0.2260
     12  O         -7.8010   31.3270   55.1750 O.2     5  LEU5       -0.2867
     13  CB        -6.8320   29.1820   57.5070 C.3     5  LEU5        0.0270
     14  CG        -5.5680   29.9910   57.2150 C.3     5  LEU5        0.0019
     15  CD1       -5.5530   31.3440   57.8950 C.3     5  LEU5        0.0001
     16  CD2       -4.4010   29.1860   57.6540 C.3     5  LEU5        0.0001
     17  N         -8.2770   33.8460   53.7200 N.3     9  ILE9       -0.1245
     18  CA        -7.1960   34.4400   52.9330 C.3     9  ILE9        0.1561
     19  C         -7.6790   34.8420   51.5370 C.2     9  ILE9        0.2260
     20  O         -7.4280   35.9390   51.0480 O.2     9  ILE9       -0.2867
     21  CB        -5.9810   33.5610   52.8740 C.3     9  ILE9        0.0252
     22  CG1       -5.3630   33.4680   54.3160 C.3     9  ILE9        0.0019
     23  CG2       -4.9700   34.1750   51.8580 C.3     9  ILE9        0.0019
     24  CD1       -4.2550   32.4050   54.4740 C.3     9  ILE9        0.0001
     25  N          0.7090   32.2210   49.4600 N.3    21  TYR21      -0.1227
     26  CA         1.1390   32.2450   50.8490 C.3    21  TYR21       0.1736
     27  C          1.5240   30.8920   51.3890 C.2    21  TYR21       0.2596
     28  O          1.8550   30.7960   52.5640 O.2    21  TYR21      -0.2718
     29  CB         0.0510   32.8160   51.7360 C.3    21  TYR21       0.0548
     30  CG        -0.3440   34.1740   51.2800 C.ar   21  TYR21      -0.0200
     31  CD1       -1.5700   34.3840   50.6760 C.ar   21  TYR21      -0.0009
     32  CD2        0.5440   35.2700   51.4660 C.ar   21  TYR21      -0.0009
     33  CE1       -1.9290   35.6910   50.2290 C.ar   21  TYR21       0.0417
     34  CE2        0.2100   36.5440   50.9970 C.ar   21  TYR21       0.0417
     35  CZ        -1.0040   36.7390   50.3980 C.ar   21  TYR21       0.1957
     36  OH        -1.3190   38.0190   49.9910 O.3    21  TYR21      -0.2866
     37  N          1.4710   29.8670   50.5390 N.am   22  GLY22      -0.1957
     38  CA         1.7740   28.5320   50.9640 C.3    22  GLY22       0.1869
     39  C          3.2690   28.3080   51.1340 C.2    22  GLY22       0.2309
     40  O          3.7030   27.3780   51.8560 O.2    22  GLY22      -0.2863
     41  N          7.8110   32.5420   57.0970 N.3    27  ASN27      -0.1225
     42  CA         6.6810   32.2460   57.9530 C.3    27  ASN27       0.1785
     43  C          5.4130   31.8940   57.2930 C.2    27  ASN27       0.2597
     44  O          4.5900   31.2400   57.9110 O.2    27  ASN27      -0.2718
     45  CB         6.4270   33.3940   58.8910 C.3    27  ASN27       0.1169
     46  CG         7.6380   33.7260   59.6820 C.2    27  ASN27       0.2627
     47  OD1        7.8780   33.1320   60.7030 O.2    27  ASN27      -0.2716
     48  ND2        8.3990   34.6950   59.2250 N.am   27  ASN27      -0.0877
     49  N          5.2500   32.3080   56.0440 N.am   28  CYS28      -0.1956
     50  CA         4.0390   31.9350   55.3400 C.3    28  CYS28       0.1843
     51  C          4.2350   30.5530   54.7800 C.2    28  CYS28       0.2626
     52  O          5.0280   30.3540   53.8920 O.2    28  CYS28      -0.2714
     53  CB         3.7040   32.9310   54.2340 C.3    28  CYS28       0.0997
     54  SG         3.3750   34.6340   54.8400 S.3    28  CYS28      -0.0797
     55  N          3.5160   29.5900   55.3310 N.am   29  GLY29      -0.1940
     56  CA         3.6800   28.2260   54.8970 C.3    29  GLY29       0.2014
     57  C          3.7910   27.2360   56.0140 C.2    29  GLY29       0.2638
     58  O          3.2370   27.4240   57.1060 O.2    29  GLY29      -0.2714
     59  N          4.4900   26.1450   55.7090 N.am   30  VAL30      -0.1977
     60  CA         4.4370   24.9450   56.5070 C.3    30  VAL30       0.1596
     61  C          5.8090   24.5970   57.1100 C.2    30  VAL30       0.2287
     62  O          6.0430   23.4470   57.4960 O.2    30  VAL30      -0.2864
     63  CB         3.8010   23.7790   55.6800 C.3    30  VAL30       0.0276
     64  CG1        2.3470   24.0330   55.4960 C.3    30  VAL30       0.0022
     65  CG2        4.4380   23.6540   54.2900 C.3    30  VAL30       0.0022
     66  N          2.4890   36.3570   58.6760 N.3    44  CYS44      -0.1235
     67  CA         2.4730   34.9330   58.8840 C.3    44  CYS44       0.1677
     68  C          3.1690   34.5300   60.1450 C.2    44  CYS44       0.2270
     69  O          2.8640   33.4840   60.7070 O.2    44  CYS44      -0.2867
     70  CB         3.1400   34.2490   57.7230 C.3    44  CYS44       0.0956
     71  SG         2.0410   34.4440   56.3350 S.3    44  CYS44      -0.0801
     72  N          0.7010   35.0980   62.9620 N.3    47  HIS47      -0.1226
     73  CA        -0.3200   34.0810   62.8630 C.3    47  HIS47       0.1752
     74  C          0.1600   32.8070   63.5560 C.2    47  HIS47       0.2595
     75  O         -0.5880   32.2440   64.3640 O.2    47  HIS47      -0.2718
     76  CB        -0.5740   33.7970   61.4000 C.3    47  HIS47       0.0759
     77  CG        -1.6590   32.7880   61.1520 C.ar   47  HIS47       0.0818
     78  ND1       -1.4290   31.6460   60.4260 N.ar   47  HIS47      -0.2268
     79  CD2       -2.9750   32.7620   61.5100 C.ar   47  HIS47       0.1154
     80  CE1       -2.5620   30.9570   60.3280 C.ar   47  HIS47       0.1986
     81  NE2       -3.5190   31.6080   60.9810 N.ar   47  HIS47      -0.2212
     82  N          1.3550   32.3490   63.2080 N.am   48  LYS48      -0.1980
     83  CA         1.9030   31.1650   63.8690 C.3    48  LYS48       0.1596
     84  C          2.0090   31.2930   65.3850 C.2    48  LYS48       0.2287
     85  O          1.6230   30.3480   66.1080 O.2    48  LYS48      -0.2864
     86  CB         3.2170   30.7980   63.2330 C.3    48  LYS48       0.0298
     87  CG         2.9530   30.3300   61.8490 C.3    48  LYS48       0.0038
     88  CD         4.1690   29.7480   61.1500 C.3    48  LYS48       0.0206
     89  CE         3.7330   28.9740   59.9580 C.3    48  LYS48       0.1093
     90  NZ         4.8330   28.6730   59.0230 N.3    48  LYS48      -0.1314
     91  N         -1.1320   30.9550   66.9140 N.3    51  TYR51      -0.1241
     92  CA        -1.4860   29.5530   67.0300 C.3    51  TYR51       0.1605
     93  C         -0.8750   28.9470   68.3030 C.2    51  TYR51       0.2264
     94  O         -1.5470   28.1810   69.0100 O.2    51  TYR51      -0.2867
     95  CB        -1.0120   28.8170   65.7880 C.3    51  TYR51       0.0534
     96  CG        -1.9780   28.8560   64.6470 C.ar   51  TYR51      -0.0201
     97  CD1       -3.0960   29.6990   64.6520 C.ar   51  TYR51      -0.0009
     98  CD2       -1.7900   28.0240   63.5540 C.ar   51  TYR51      -0.0009
     99  CE1       -4.0000   29.7100   63.5420 C.ar   51  TYR51       0.0417
    100  CE2       -2.6760   28.0010   62.4850 C.ar   51  TYR51       0.0417
    101  CZ        -3.7620   28.8350   62.4650 C.ar   51  TYR51       0.1957
    102  OH        -4.5670   28.7290   61.3320 O.3    51  TYR51      -0.2866
    103  N         -4.6350   37.0290   60.3400 N.3    92  VAL92      -0.1245
    104  CA        -3.6520   36.8540   59.2340 C.3    92  VAL92       0.1561
    105  C         -4.2210   37.2680   57.8470 C.2    92  VAL92       0.2260
    106  O         -3.5080   37.8950   57.0260 O.2    92  VAL92      -0.2867
    107  CB        -2.9700   35.4400   59.2040 C.3    92  VAL92       0.0252
    108  CG1       -3.8850   34.3530   58.6130 C.3    92  VAL92       0.0019
    109  CG2       -1.6240   35.5370   58.4380 C.3    92  VAL92       0.0019
    110  N         -2.5070   39.9540   55.6370 N.3    96  LEU96      -0.1245
    111  CA        -1.9860   39.6740   54.2980 C.3    96  LEU96       0.1561
    112  C         -2.6130   40.6780   53.3070 C.2    96  LEU96       0.2260
    113  O         -1.9270   41.2390   52.4620 O.2    96  LEU96      -0.2867
    114  CB        -2.3500   38.2410   53.9290 C.3    96  LEU96       0.0270
    115  CG        -1.4270   37.0100   54.1320 C.3    96  LEU96       0.0019
    116  CD1       -0.1890   37.3360   54.7830 C.3    96  LEU96       0.0001
    117  CD2       -2.1190   35.6780   54.6060 C.3    96  LEU96       0.0001
@<TRIPOS>BOND
     1    25    26    1
     2    36    35    1
     3    33    35   ar
     4    33    31   ar
     5    35    34   ar
     6    37    38    1
     7    37    27   am
     8    31    30   ar
     9    26    27    1
    10    26    29    1
    11    38    39    1
    12    34    32   ar
    13    20    19    2
    14    39    40    2
    15    30    32   ar
    16    30    29    1
    17    27    28    2
    18    19    18    1
    19    23    21    1
    20   113   112    2
    21    21    18    1
    22    21    22    1
    23    18    17    1
    24   112   111    1
    25    52    51    2
    26   114   115    1
    27   114   111    1
    28   115   117    1
    29   115   116    1
    30    53    54    1
    31    53    50    1
    32    65    63    1
    33   111   110    1
    34    22    24    1
    35    51    55   am
    36    51    50    1
    37    54    71    1
    38    56    55    1
    39    56    57    1
    40    12    11    2
    41     4     3    2
    42    50    49    1
    43    64    63    1
    44    11    10    1
    45    63    60    1
    46    59    57   am
    47    59    60    1
    48    57    58    2
    49    49    43   am
    50     3     2    1
    51    71    70    1
    52     6     5    1
    53     6     8    1
    54     6     7    1
    55     5     2    1
    56    60    61    1
    57    10     9    1
    58    10    13    1
    59   106   105    2
    60     2     1    1
    61    41    42    1
    62    61    62    2
    63    14    13    1
    64    14    16    1
    65    14    15    1
    66    43    44    2
    67    43    42    1
    68    70    67    1
    69   105   104    1
    70    42    45    1
    71   109   107    1
    72   108   107    1
    73    66    67    1
    74    67    68    1
    75    45    46    1
    76    90    89    1
    77   107   104    1
    78    48    46   am
    79   104   103    1
    80    46    47    2
    81    89    88    1
    82    68    69    2
    83    80    78   ar
    84    80    81   ar
    85    78    77   ar
    86    81    79   ar
    87    88    87    1
    88    77    76    1
    89    77    79   ar
    90   102   101    1
    91    76    73    1
    92    87    86    1
    93   101   100   ar
    94   101    99   ar
    95   100    98   ar
    96    73    72    1
    97    73    74    1
    98    82    74   am
    99    82    83    1
   100    86    83    1
   101    99    97   ar
   102    98    96   ar
   103    74    75    2
   104    83    84    1
   105    96    97   ar
   106    96    95    1
   107    84    85    2
   108    95    92    1
   109    91    92    1
   110    92    93    1
   111    93    94    2
