@<TRIPOS>MOLECULE
tmp/2h8kB00.pdb
 186 182 0 0 0
SMALL
GASTEIGER

@<TRIPOS>ATOM
      1  N         28.1160  -35.9940   10.9050 N.3    39  LYS39      -0.1231
      2  CA        29.0810  -34.9780   11.3480 C.3    39  LYS39       0.1693
      3  C         28.9810  -34.7510   12.8550 C.2    39  LYS39       0.2593
      4  O         29.0060  -33.6300   13.3280 O.2    39  LYS39      -0.2718
      5  CB        28.9130  -33.6560   10.5630 C.3    39  LYS39       0.0285
      6  CG        28.9520  -33.8010    9.0250 C.3    39  LYS39       0.0035
      7  CD        30.3380  -34.2030    8.4850 C.3    39  LYS39       0.0206
      8  CE        31.3470  -33.0070    8.5270 C.3    39  LYS39       0.1093
      9  NZ        32.7770  -33.3750    8.2520 N.3    39  LYS39      -0.1314
     10  N         28.8730  -35.8320   13.5990 N.am   40  SER40      -0.1938
     11  CA        28.7040  -35.7450   15.0240 C.3    40  SER40       0.2055
     12  C         29.7430  -36.6230   15.7200 C.2    40  SER40       0.2644
     13  O         29.6170  -36.9620   16.8950 O.2    40  SER40      -0.2714
     14  CB        27.2660  -36.1560   15.3870 C.3    40  SER40       0.2130
     15  OG        26.9360  -35.8580   16.7250 O.3    40  SER40      -0.2179
     16  N         30.7760  -36.9930   14.9750 N.am   41  GLY41      -0.1939
     17  CA        31.9000  -37.7830   15.5290 C.3    41  GLY41       0.2014
     18  C         32.0700  -39.1970   14.9830 C.2    41  GLY41       0.2640
     19  O         32.8520  -39.9810   15.5370 O.2    41  GLY41      -0.2714
     20  N         31.3560  -39.5120   13.8910 N.am   42  THR42      -0.1936
     21  CA        31.3210  -40.8790   13.3120 C.3    42  THR42       0.2028
     22  C         32.6920  -41.4720   12.9340 C.2    42  THR42       0.2643
     23  O         33.1660  -42.4410   13.5360 O.2    42  THR42      -0.2714
     24  CB        30.4250  -40.9280   12.0740 C.3    42  THR42       0.1808
     25  OG1       29.2310  -40.1890   12.3250 O.3    42  THR42      -0.2208
     26  CG2       30.0770  -42.3640   11.7320 C.3    42  THR42       0.0379
     27  N         33.3110  -40.8680   11.9350 N.am   43  THR43      -0.1936
     28  CA        34.5470  -41.3540   11.4010 C.3    43  THR43       0.2028
     29  C         35.6140  -41.4410   12.5050 C.2    43  THR43       0.2642
     30  O         36.5020  -42.2850   12.4660 O.2    43  THR43      -0.2714
     31  CB        34.9670  -40.5030   10.1980 C.3    43  THR43       0.1808
     32  OG1       35.7440  -41.2920    9.3090 O.3    43  THR43      -0.2208
     33  CG2       35.7310  -39.2830   10.6190 C.3    43  THR43       0.0379
     34  N         35.4720  -40.5900   13.5080 N.am   44  TRP44      -0.1973
     35  CA        36.3420  -40.6010   14.6660 C.3    44  TRP44       0.1640
     36  C         36.0440  -41.8020   15.5530 C.2    44  TRP44       0.2290
     37  O         36.9320  -42.5930   15.8780 O.2    44  TRP44      -0.2864
     38  CB        36.1470  -39.2990   15.4600 C.3    44  TRP44       0.0576
     39  CG        37.0560  -39.1190   16.6510 C.ar   44  TRP44       0.0006
     40  CD1       38.2250  -39.7550   16.8840 C.ar   44  TRP44       0.0946
     41  CD2       36.8880  -38.1860   17.7230 C.ar   44  TRP44       0.0152
     42  NE1       38.7890  -39.3060   18.0470 N.ar   44  TRP44      -0.2442
     43  CE2       37.9840  -38.3410   18.5840 C.ar   44  TRP44       0.0810
     44  CE3       35.9110  -37.2390   18.0430 C.ar   44  TRP44       0.0012
     45  CZ2       38.1420  -37.5750   19.7530 C.ar   44  TRP44       0.0191
     46  CZ3       36.0630  -36.4840   19.2140 C.ar   44  TRP44       0.0001
     47  CH2       37.1710  -36.6550   20.0460 C.ar   44  TRP44       0.0015
     48  N         23.4140  -44.1460   10.4990 N.3    60  HIS60      -0.1241
     49  CA        23.0010  -42.7800   10.8750 C.3    60  HIS60       0.1621
     50  C         21.5180  -42.6530   11.0530 C.2    60  HIS60       0.2264
     51  O         20.9570  -41.5730   10.9110 O.2    60  HIS60      -0.2867
     52  CB        23.4710  -41.7520    9.8660 C.3    60  HIS60       0.0745
     53  CG        24.9330  -41.4850    9.9190 C.ar   60  HIS60       0.0817
     54  ND1       25.6720  -41.1800    8.7960 N.ar   60  HIS60      -0.2268
     55  CD2       25.8050  -41.5000   10.9520 C.ar   60  HIS60       0.1154
     56  CE1       26.9340  -41.0000    9.1400 C.ar   60  HIS60       0.1986
     57  NE2       27.0400  -41.1910   10.4430 N.ar   60  HIS60      -0.2212
     58  N         26.8550  -34.8820   19.4580 N.3    82  ARG82      -0.1245
     59  CA        27.7440  -33.7440   19.4890 C.3    82  ARG82       0.1563
     60  C         26.8970  -32.5140   19.5510 C.2    82  ARG82       0.2260
     61  O         25.8700  -32.4540   18.8700 O.2    82  ARG82      -0.2867
     62  CB        28.5650  -33.7110   18.2500 C.3    82  ARG82       0.0307
     63  CG        29.7560  -32.8070   18.3310 C.3    82  ARG82       0.0489
     64  CD        30.2490  -32.5230   16.9350 C.3    82  ARG82       0.2205
     65  NE        31.5390  -31.8740   16.9220 N.pl3  82  ARG82      -0.0865
     66  CZ        32.1110  -31.4010   15.8200 C.cat  82  ARG82       0.5346
     67  NH1       31.4880  -31.5020   14.6580 N.pl3  82  ARG82       0.1354
     68  NH2       33.3170  -30.8300   15.8720 N.pl3  82  ARG82       0.1354
     69  N         28.1360  -26.7240   17.1780 N.3    86  ASP86      -0.1239
     70  CA        29.2540  -27.3380   16.4990 C.3    86  ASP86       0.1674
     71  C         28.7990  -28.2590   15.3700 C.2    86  ASP86       0.2266
     72  O         29.2750  -28.1220   14.2110 O.2    86  ASP86      -0.2867
     73  CB        30.1420  -28.0940   17.4830 C.3    86  ASP86       0.1410
     74  CG        31.2860  -27.2460   17.9960 C.2    86  ASP86       0.3668
     75  OD1       31.6150  -27.3230   19.2230 O.co2  86  ASP86      -0.2456
     76  OD2       31.8480  -26.4850   17.1620 O.co2  86  ASP86      -0.2456
     77  N         29.8840  -27.7540   11.5600 N.3    90  SER90      -0.1217
     78  CA        30.6300  -28.7920   10.8960 C.3    90  SER90       0.1889
     79  C         29.8300  -29.2400    9.6330 C.2    90  SER90       0.2288
     80  O         30.3590  -29.3100    8.4920 O.2    90  SER90      -0.2866
     81  CB        30.8620  -29.9390   11.8650 C.3    90  SER90       0.2089
     82  OG        31.8650  -30.8120   11.4160 O.3    90  SER90      -0.2183
     83  N         30.7610  -36.2750   21.9440 N.3   145  TYR145     -0.1241
     84  CA        31.9320  -35.7850   21.2110 C.3   145  TYR145      0.1605
     85  C         32.8340  -34.9020   22.0440 C.2   145  TYR145      0.2264
     86  O         34.0270  -34.9750   21.9310 O.2   145  TYR145     -0.2867
     87  CB        31.4620  -34.9930   20.0060 C.3   145  TYR145      0.0534
     88  CG        32.5440  -34.4660   19.0730 C.ar  145  TYR145     -0.0201
     89  CD1       32.7010  -35.0020   17.8030 C.ar  145  TYR145     -0.0009
     90  CD2       33.3710  -33.4160   19.4450 C.ar  145  TYR145     -0.0009
     91  CE1       33.6560  -34.5170   16.9290 C.ar  145  TYR145      0.0417
     92  CE2       34.3390  -32.9270   18.5840 C.ar  145  TYR145      0.0417
     93  CZ        34.4720  -33.4770   17.3190 C.ar  145  TYR145      0.1957
     94  OH        35.4220  -32.9800   16.4530 O.3   145  TYR145     -0.2866
     95  N         37.0400  -35.3980   23.4620 N.3   149  LYS149     -0.1245
     96  CA        38.0830  -34.3530   23.4480 C.3   149  LYS149      0.1561
     97  C         38.5360  -34.0090   24.8450 C.2   149  LYS149      0.2260
     98  O         39.7330  -33.8610   25.0940 O.2   149  LYS149     -0.2867
     99  CB        37.5870  -33.0770   22.7880 C.3   149  LYS149      0.0271
    100  CG        37.9460  -32.9610   21.3510 C.3   149  LYS149      0.0035
    101  CD        39.4200  -32.6980   21.1490 C.3   149  LYS149      0.0206
    102  CE        39.6800  -32.5010   19.6690 C.3   149  LYS149      0.1093
    103  NZ        41.1360  -32.3450   19.3120 N.3   149  LYS149     -0.1314
    104  N         43.7710  -41.6630   17.3220 N.3   179  THR179     -0.1203
    105  CA        42.4550  -41.0200   17.3070 C.3   179  THR179      0.1994
    106  C         42.4710  -39.6030   17.8830 C.2   179  THR179      0.2619
    107  O         41.4760  -39.1310   18.4490 O.2   179  THR179     -0.2717
    108  CB        41.3970  -41.8670   17.9900 C.3   179  THR179      0.1784
    109  OG1       41.8220  -42.1910   19.3180 O.3   179  THR179     -0.2211
    110  CG2       41.1840  -43.1230   17.2090 C.3   179  THR179      0.0376
    111  N         43.6120  -38.9410   17.7470 N.am  180  SER180     -0.1937
    112  CA        43.6960  -37.5350   17.9860 C.3   180  SER180      0.2055
    113  C         43.3900  -36.9140   16.6440 C.2   180  SER180      0.2643
    114  O         43.6690  -37.5160   15.6170 O.2   180  SER180     -0.2714
    115  CB        45.0980  -37.1630   18.4090 C.3   180  SER180      0.2130
    116  OG        46.0310  -37.4500   17.3740 O.3   180  SER180     -0.2179
    117  N         42.8090  -35.7230   16.6410 N.am  181  PHE181     -0.1973
    118  CA        42.5070  -35.0420   15.3900 C.3   181  PHE181      0.1639
    119  C         43.7790  -34.7830   14.5330 C.2   181  PHE181      0.2290
    120  O         43.7620  -34.9440   13.3060 O.2   181  PHE181     -0.2864
    121  CB        41.7620  -33.7340   15.6500 C.3   181  PHE181      0.0560
    122  CG        41.4300  -32.9790   14.3990 C.ar  181  PHE181     -0.0200
    123  CD1       40.1780  -33.1180   13.7930 C.ar  181  PHE181     -0.0042
    124  CD2       42.3760  -32.1380   13.7980 C.ar  181  PHE181     -0.0042
    125  CE1       39.8710  -32.4150   12.6040 C.ar  181  PHE181     -0.0003
    126  CE2       42.0770  -31.4450   12.6140 C.ar  181  PHE181     -0.0003
    127  CZ        40.8220  -31.5830   12.0210 C.ar  181  PHE181     -0.0000
    128  N         45.0150  -38.0450   12.8430 N.3   184  MET184     -0.1245
    129  CA        44.0000  -38.4860   11.8920 C.3   184  MET184      0.1570
    130  C         43.8790  -37.5980   10.6280 C.2   184  MET184      0.2261
    131  O         43.6260  -38.1030    9.5310 O.2   184  MET184     -0.2867
    132  CB        42.6400  -38.7120   12.5810 C.3   184  MET184      0.0387
    133  CG        42.4650  -40.1300   13.1120 C.3   184  MET184      0.0595
    134  SD        40.8900  -40.4970   13.9430 S.3   184  MET184     -0.1393
    135  CE        39.7040  -40.3710   12.6100 C.3   184  MET184      0.0692
    136  N         37.1970  -32.6890    5.0590 N.3   207  PHE207     -0.1227
    137  CA        36.3110  -33.4880    5.9560 C.3   207  PHE207      0.1736
    138  C         36.7870  -33.3470    7.4280 C.2   207  PHE207      0.2595
    139  O         36.0340  -32.9470    8.3200 O.2   207  PHE207     -0.2718
    140  CB        36.2440  -34.9660    5.5260 C.3   207  PHE207      0.0547
    141  CG        35.1840  -35.7440    6.3210 C.ar  207  PHE207     -0.0202
    142  CD1       33.8320  -35.4680    6.1130 C.ar  207  PHE207     -0.0042
    143  CD2       35.5360  -36.7170    7.2470 C.ar  207  PHE207     -0.0042
    144  CE1       32.8440  -36.1040    6.8420 C.ar  207  PHE207     -0.0003
    145  CE2       34.5320  -37.3740    7.9450 C.ar  207  PHE207     -0.0003
    146  CZ        33.1980  -37.0690    7.7680 C.ar  207  PHE207     -0.0000
    147  N         38.0460  -33.6570    7.6580 N.am  208  MET208     -0.1965
    148  CA        38.6260  -33.3980    8.9140 C.3   208  MET208      0.1736
    149  C         38.8950  -31.8890    8.8520 C.2   208  MET208      0.2616
    150  O         39.9540  -31.4440    8.3860 O.2   208  MET208     -0.2715
    151  CB        39.9030  -34.2310    9.0980 C.3   208  MET208      0.0427
    152  CG        39.6710  -35.7650    9.0520 C.3   208  MET208      0.0599
    153  SD        38.4880  -36.5040   10.2150 S.3   208  MET208     -0.1393
    154  CE        39.5820  -36.8080   11.6340 C.3   208  MET208      0.0692
    155  N         37.9040  -31.1100    9.2860 N.am  209  ARG209     -0.1963
    156  CA        37.9640  -29.6360    9.1970 C.3   209  ARG209      0.1729
    157  C         38.8380  -29.0000   10.2880 C.2   209  ARG209      0.2616
    158  O         40.0130  -28.7930   10.0590 O.2   209  ARG209     -0.2715
    159  CB        36.5480  -29.0410    9.1770 C.3   209  ARG209      0.0348
    160  CG        36.4650  -27.6270    8.6870 C.3   209  ARG209      0.0492
    161  CD        35.0570  -27.1050    8.8520 C.3   209  ARG209      0.2205
    162  NE        34.5520  -27.2900   10.2170 N.pl3 209  ARG209     -0.0865
    163  CZ        34.9470  -26.5810   11.2860 C.cat 209  ARG209      0.5346
    164  NH1       35.8690  -25.6270   11.1780 N.pl3 209  ARG209      0.1354
    165  NH2       34.4330  -26.8410   12.4820 N.pl3 209  ARG209      0.1354
    166  N         38.2570  -28.6800   11.4510 N.am  210  LYS210     -0.1963
    167  CA        39.0240  -28.1320   12.5830 C.3   210  LYS210      0.1728
    168  C         39.0630  -29.1300   13.7130 C.2   210  LYS210      0.2617
    169  O         40.0990  -29.3480   14.3300 O.2   210  LYS210     -0.2715
    170  CB        38.4510  -26.7940   13.0730 C.3   210  LYS210      0.0311
    171  CG        39.0420  -25.5740   12.4150 C.3   210  LYS210      0.0038
    172  CD        40.5150  -25.4330   12.7460 C.3   210  LYS210      0.0206
    173  CE        41.4040  -25.9600   11.6120 C.3   210  LYS210      0.1093
    174  NZ        42.7600  -26.3750   12.1010 N.3   210  LYS210     -0.1314
    175  N         37.9260  -29.7360   13.9940 N.am  211  GLY211     -0.1940
    176  CA        37.8670  -30.7390   15.0280 C.3   211  GLY211      0.2014
    177  C         38.1560  -30.2040   16.4060 C.2   211  GLY211      0.2638
    178  O         38.7460  -30.8950   17.2330 O.2   211  GLY211     -0.2714
    179  N         37.7640  -28.9560   16.6390 N.am  212  MET212     -0.1976
    180  CA        37.7610  -28.3790   17.9800 C.3   212  MET212      0.1605
    181  C         36.3420  -28.0720   18.3780 C.2   212  MET212      0.2287
    182  O         35.5950  -27.4420   17.6070 O.2   212  MET212     -0.2864
    183  CB        38.5970  -27.0890   18.0760 C.3   212  MET212      0.0413
    184  CG        39.9960  -27.2640   18.7030 C.3   212  MET212      0.0598
    185  SD        40.0250  -28.1020   20.3360 S.3   212  MET212     -0.1393
    186  CE        39.2840  -26.8640   21.4450 C.3   212  MET212      0.0692
@<TRIPOS>BOND
     1   136   137    1
     2   140   137    1
     3   140   141    1
     4   137   138    1
     5   142   141   ar
     6   142   144   ar
     7   141   143   ar
     8   144   146   ar
     9   143   145   ar
    10   138   147   am
    11   138   139    2
    12   147   148    1
    13   146   145   ar
    14     9     8    1
    15   150   149    2
    16     7     8    1
    17     7     6    1
    18    80    79    2
    19   160   161    1
    20   160   159    1
    21    54    56   ar
    22    54    53   ar
    23   161   162    1
    24   149   148    1
    25   149   155   am
    26   148   151    1
    27     6     5    1
    28   152   151    1
    29   152   153    1
    30    56    57   ar
    31   159   156    1
    32   156   155    1
    33   156   157    1
    34    32    31    1
    35   131   130    2
    36    79    78    1
    37    52    53    1
    38    52    49    1
    39    53    55   ar
    40   158   157    2
    41    31    33    1
    42    31    28    1
    43   153   154    1
    44   162   163    2
    45   157   166   am
    46    57    55   ar
    47    48    49    1
    48     5     2    1
    49   130   129    1
    50    49    50    1
    51    78    77    1
    52    78    81    1
    53     1     2    1
    54    51    50    2
    55   164   163    1
    56   163   165    1
    57     2     3    1
    58    28    27    1
    59    28    29    1
    60    82    81    1
    61   166   167    1
    62   173   174    1
    63   173   172    1
    64    26    24    1
    65   129   132    1
    66   129   128    1
    67    27    22   am
    68   127   125   ar
    69   127   126   ar
    70    24    25    1
    71    24    21    1
    72   171   172    1
    73   171   170    1
    74    30    29    2
    75    29    34   am
    76   132   133    1
    77   167   170    1
    78   167   168    1
    79   125   123   ar
    80   135   134    1
    81   126   124   ar
    82     3     4    2
    83     3    10   am
    84    22    21    1
    85    22    23    2
    86   133   134    1
    87   120   119    2
    88    21    20    1
    89    34    35    1
    90    10    11    1
    91   168   175   am
    92   168   169    2
    93   123   122   ar
    94   124   122   ar
    95    20    18   am
    96   175   176    1
    97    72    71    2
    98   122   121    1
    99   119   118    1
   100    67    66    1
   101    35    38    1
   102    35    36    1
   103    16    17    1
   104    16    12   am
   105    18    17    1
   106    18    19    2
   107    11    14    1
   108    11    12    1
   109   176   177    1
   110    71    70    1
   111    14    15    1
   112   118   121    1
   113   118   117    1
   114    38    39    1
   115    36    37    2
   116   114   113    2
   117    12    13    2
   118    66    68    1
   119    66    65    2
   120   177   179   am
   121   177   178    2
   122    94    93    1
   123    70    69    1
   124    70    73    1
   125   179   180    1
   126   117   113   am
   127   113   112    1
   128    39    40   ar
   129    39    41   ar
   130    40    42   ar
   131    65    64    1
   132    91    93   ar
   133    91    89   ar
   134    64    63    1
   135    76    74   ar
   136   110   108    1
   137   105   104    1
   138   105   106    1
   139   105   108    1
   140    93    92   ar
   141   116   115    1
   142    73    74    1
   143   182   181    2
   144    41    44   ar
   145    41    43   ar
   146   111   106   am
   147   111   112    1
   148    89    88   ar
   149   106   107    2
   150   180   183    1
   151   180   181    1
   152   112   115    1
   153   108   109    1
   154    74    75   ar
   155    44    46   ar
   156    42    43   ar
   157   183   184    1
   158    62    63    1
   159    62    59    1
   160    92    90   ar
   161    43    45   ar
   162   184   185    1
   163    61    60    2
   164    88    90   ar
   165    88    87    1
   166    46    47   ar
   167   103   102    1
   168    58    59    1
   169    59    60    1
   170   102   101    1
   171    45    47   ar
   172    87    84    1
   173   185   186    1
   174   101   100    1
   175    84    83    1
   176    84    85    1
   177   100    99    1
   178    86    85    2
   179    99    96    1
   180    96    95    1
   181    96    97    1
   182    97    98    2
