@<TRIPOS>MOLECULE
tmp/2h8mB03.pdb
 99 89 0 0 0
SMALL
GASTEIGER

@<TRIPOS>ATOM
      1  N       -141.1790  -29.6040   88.4560 N.3    31  LEU31      -0.1245
      2  CA      -140.5930  -30.6630   89.2750 C.3    31  LEU31       0.1561
      3  C       -141.4250  -30.8630   90.5420 C.2    31  LEU31       0.2260
      4  O       -141.6410  -31.9940   90.9790 O.2    31  LEU31      -0.2867
      5  CB      -139.1410  -30.3330   89.6370 C.3    31  LEU31       0.0270
      6  CG      -138.1610  -30.2590   88.4530 C.3    31  LEU31       0.0019
      7  CD1     -136.7430  -30.0880   88.9780 C.3    31  LEU31       0.0001
      8  CD2     -138.2470  -31.5390   87.6230 C.3    31  LEU31       0.0001
      9  N       -144.6000  -32.7650   89.6020 N.3    34  ASN34      -0.1225
     10  CA      -144.3440  -34.1850   89.3890 C.3    34  ASN34       0.1785
     11  C       -144.1850  -34.8780   90.7390 C.2    34  ASN34       0.2597
     12  O       -144.6340  -36.0090   90.9120 O.2    34  ASN34      -0.2718
     13  CB      -143.0770  -34.4030   88.5550 C.3    34  ASN34       0.1169
     14  CG      -143.2700  -34.0450   87.0940 C.2    34  ASN34       0.2627
     15  OD1     -144.3960  -33.9860   86.5990 O.2    34  ASN34      -0.2716
     16  ND2     -142.1670  -33.8190   86.3930 N.am   34  ASN34      -0.0877
     17  N       -143.5450  -34.1960   91.6870 N.am   35  ALA35      -0.1979
     18  CA      -143.3330  -34.7560   93.0220 C.3    35  ALA35       0.1597
     19  C       -144.6810  -34.9500   93.7120 C.2    35  ALA35       0.2287
     20  O       -144.9120  -35.9710   94.3570 O.2    35  ALA35      -0.2864
     21  CB      -142.4480  -33.8390   93.8500 C.3    35  ALA35       0.0319
     22  N       -146.3180  -37.9550   92.3220 N.3    38  ALA38      -0.1245
     23  CA      -145.7100  -39.1790   92.8320 C.3    38  ALA38       0.1562
     24  C       -146.2350  -39.4960   94.2310 C.2    38  ALA38       0.2260
     25  O       -146.4400  -40.6630   94.5830 O.2    38  ALA38      -0.2867
     26  CB      -144.1920  -39.0300   92.8570 C.3    38  ALA38       0.0290
     27  N       -138.7410  -36.2300   96.7480 N.3    76  ASP76      -0.1239
     28  CA      -140.0790  -36.5530   97.2220 C.3    76  ASP76       0.1674
     29  C       -140.0580  -37.9770   97.7610 C.2    76  ASP76       0.2266
     30  O       -139.1790  -38.7710   97.4100 O.2    76  ASP76      -0.2867
     31  CB      -141.1180  -36.4440   96.0890 C.3    76  ASP76       0.1410
     32  CG      -140.9230  -37.4790   94.9970 C.2    76  ASP76       0.3668
     33  OD1     -141.1530  -38.6940   95.2290 O.co2  76  ASP76      -0.2456
     34  OD2     -140.5390  -37.0710   93.8870 O.co2  76  ASP76      -0.2456
     35  N       -141.9630  -43.5220   93.6620 N.3    80  GLY80      -0.1210
     36  CA      -140.6830  -43.8810   93.0720 C.3    80  GLY80       0.1956
     37  C       -140.8140  -44.5890   91.7320 C.2    80  GLY80       0.2611
     38  O       -141.9230  -44.7970   91.2360 O.2    80  GLY80      -0.2717
     39  N       -139.6800  -44.9620   91.1430 N.am   81  MET81      -0.1979
     40  CA      -139.6620  -45.6460   89.8510 C.3    81  MET81       0.1605
     41  C       -138.6980  -46.8300   89.8580 C.2    81  MET81       0.2287
     42  O       -137.5910  -46.7300   90.3880 O.2    81  MET81      -0.2864
     43  CB      -139.2320  -44.6810   88.7380 C.3    81  MET81       0.0413
     44  CG      -140.2600  -43.6230   88.3630 C.3    81  MET81       0.0598
     45  SD      -139.5970  -42.4740   87.1170 S.3    81  MET81      -0.1393
     46  CE      -138.7520  -41.3320   88.1640 C.3    81  MET81       0.0692
     47  N       -140.2870  -44.2880   81.2990 N.3    89  ASN89      -0.1225
     48  CA      -140.9630  -43.0290   81.5790 C.3    89  ASN89       0.1785
     49  C       -140.1550  -41.7950   81.2030 C.2    89  ASN89       0.2597
     50  O       -140.7180  -40.7810   80.7900 O.2    89  ASN89      -0.2718
     51  CB      -141.3640  -42.9640   83.0550 C.3    89  ASN89       0.1169
     52  CG      -142.3290  -44.0720   83.4430 C.2    89  ASN89       0.2627
     53  OD1     -142.7540  -44.8560   82.5970 O.2    89  ASN89      -0.2716
     54  ND2     -142.6750  -44.1430   84.7260 N.am   89  ASN89      -0.0877
     55  N       -138.8360  -41.8770   81.3440 N.am   90  LEU90      -0.1980
     56  CA      -137.9780  -40.7430   81.0170 C.3    90  LEU90       0.1596
     57  C       -137.3750  -40.8110   79.6140 C.2    90  LEU90       0.2287
     58  O       -137.0650  -39.7790   79.0140 O.2    90  LEU90      -0.2864
     59  CB      -136.8540  -40.6270   82.0520 C.3    90  LEU90       0.0297
     60  CG      -137.2700  -40.3860   83.5080 C.3    90  LEU90       0.0022
     61  CD1     -136.0380  -40.3190   84.4000 C.3    90  LEU90       0.0001
     62  CD2     -138.0620  -39.0870   83.6080 C.3    90  LEU90       0.0001
     63  N       -148.0800  -33.2290   80.8860 N.3   110  GLY110     -0.1225
     64  CA      -147.1590  -33.8640   81.8130 C.3   110  GLY110      0.1811
     65  C       -145.7410  -34.0760   81.3110 C.2   110  GLY110      0.2280
     66  O       -145.1340  -35.1140   81.5780 O.2   110  GLY110     -0.2866
     67  N       -140.9260  -32.1980   83.0900 N.3   113  PHE113     -0.1241
     68  CA      -139.6220  -32.6750   83.5390 C.3   113  PHE113      0.1605
     69  C       -138.5050  -32.1450   82.6490 C.2   113  PHE113      0.2264
     70  O       -137.4830  -31.6780   83.1420 O.2   113  PHE113     -0.2867
     71  CB      -139.5920  -34.2090   83.5240 C.3   113  PHE113      0.0534
     72  CG      -138.2200  -34.8040   83.7660 C.ar  113  PHE113     -0.0203
     73  CD1     -137.6570  -34.8000   85.0360 C.ar  113  PHE113     -0.0042
     74  CD2     -137.4920  -35.3620   82.7130 C.ar  113  PHE113     -0.0042
     75  CE1     -136.3860  -35.3450   85.2550 C.ar  113  PHE113     -0.0003
     76  CE2     -136.2210  -35.9090   82.9220 C.ar  113  PHE113     -0.0003
     77  CZ      -135.6700  -35.8990   84.1950 C.ar  113  PHE113     -0.0000
     78  N       -131.5620  -38.4820   88.1130 N.3   125  VAL125     -0.1245
     79  CA      -132.7510  -38.9290   88.8200 C.3   125  VAL125      0.1561
     80  C       -132.4030  -40.2060   89.5920 C.2   125  VAL125      0.2260
     81  O       -132.0780  -41.2330   88.9960 O.2   125  VAL125     -0.2867
     82  CB      -133.9180  -39.2180   87.8380 C.3   125  VAL125      0.0252
     83  CG1     -135.1650  -39.6460   88.6140 C.3   125  VAL125      0.0019
     84  CG2     -134.2220  -37.9730   87.0030 C.3   125  VAL125      0.0019
     85  N       -138.0340  -40.2980   95.0530 N.3   159  THR159     -0.1218
     86  CA      -137.1860  -39.8580   93.9670 C.3   159  THR159      0.1862
     87  C       -136.5090  -38.5300   94.2360 C.2   159  THR159      0.2287
     88  O       -137.1220  -37.6140   94.7800 O.2   159  THR159     -0.2866
     89  CB      -138.0400  -39.6820   92.6870 C.3   159  THR159      0.1770
     90  OG1     -138.7270  -40.9040   92.3930 O.3   159  THR159     -0.2211
     91  CG2     -137.1640  -39.3010   91.5070 C.3   159  THR159      0.0375
     92  N       -134.4910  -35.4960   92.2520 N.3   161  ILE161     -0.1245
     93  CA      -134.1130  -34.9490   90.9610 C.3   161  ILE161      0.1561
     94  C       -132.9450  -34.0240   91.3090 C.2   161  ILE161      0.2260
     95  O       -133.0970  -33.0930   92.1020 O.2   161  ILE161     -0.2867
     96  CB      -135.2270  -34.0950   90.3040 C.3   161  ILE161      0.0252
     97  CG1     -136.5390  -34.8810   90.2060 C.3   161  ILE161      0.0019
     98  CG2     -134.7690  -33.6660   88.9130 C.3   161  ILE161      0.0019
     99  CD1     -136.4770  -36.1150   89.3270 C.3   161  ILE161      0.0001
@<TRIPOS>BOND
     1    58    57    2
     2    57    56    1
     3    50    49    2
     4    63    64    1
     5    56    55    1
     6    56    59    1
     7    49    55   am
     8    49    48    1
     9    47    48    1
    10    65    66    2
    11    65    64    1
    12    48    51    1
    13    59    60    1
    14    53    52    2
    15    69    70    2
    16    69    68    1
    17    74    76   ar
    18    74    72   ar
    19    76    77   ar
    20    51    52    1
    21    67    68    1
    22    52    54   am
    23    60    62    1
    24    60    61    1
    25    71    68    1
    26    71    72    1
    27    72    73   ar
    28    77    75   ar
    29    73    75   ar
    30    16    14   am
    31    15    14    2
    32    84    82    1
    33    14    13    1
    34    45    46    1
    35    45    44    1
    36     8     6    1
    37    82    83    1
    38    82    79    1
    39    78    79    1
    40    44    43    1
    41     6     7    1
    42     6     5    1
    43     1     2    1
    44    13    10    1
    45    43    40    1
    46    79    80    1
    47    98    96    1
    48    81    80    2
    49     2     5    1
    50     2     3    1
    51    99    97    1
    52    10     9    1
    53    10    11    1
    54    40    41    1
    55    40    39    1
    56    41    42    2
    57    97    96    1
    58    96    93    1
    59     3     4    2
    60    11    12    2
    61    11    17   am
    62    93    94    1
    63    93    92    1
    64    39    37   am
    65    38    37    2
    66    94    95    2
    67    91    89    1
    68    17    18    1
    69    37    36    1
    70    22    23    1
    71    90    89    1
    72    89    86    1
    73    23    26    1
    74    23    24    1
    75    18    19    1
    76    18    21    1
    77    36    35    1
    78    19    20    2
    79    34    32   ar
    80    86    87    1
    81    86    85    1
    82    24    25    2
    83    87    88    2
    84    32    33   ar
    85    32    31    1
    86    31    28    1
    87    27    28    1
    88    28    29    1
    89    30    29    2
