@<TRIPOS>MOLECULE
tmp/2h8mB01.pdb
 90 81 0 0 0
SMALL
GASTEIGER

@<TRIPOS>ATOM
      1  N       -121.2310  -27.5080   95.4610 N.3    69  LYS69      -0.1245
      2  CA      -121.2230  -28.5120   94.3990 C.3    69  LYS69       0.1561
      3  C       -122.0050  -28.0880   93.1590 C.2    69  LYS69       0.2260
      4  O       -122.0260  -28.8060   92.1580 O.2    69  LYS69      -0.2867
      5  CB      -121.7920  -29.8400   94.9060 C.3    69  LYS69       0.0271
      6  CG      -120.8050  -30.7440   95.6340 C.3    69  LYS69       0.0035
      7  CD      -120.6610  -30.3880   97.1000 C.3    69  LYS69       0.0206
      8  CE      -119.8320  -31.4410   97.8210 C.3    69  LYS69       0.1093
      9  NZ      -119.7640  -31.1890   99.2880 N.3    69  LYS69      -0.1314
     10  N       -125.2450  -27.8640   92.8200 N.3    71  LEU71      -0.1245
     11  CA      -126.3580  -28.7880   92.6400 C.3    71  LEU71       0.1561
     12  C       -127.6420  -28.3480   93.3300 C.2    71  LEU71       0.2260
     13  O       -127.6190  -27.7630   94.4150 O.2    71  LEU71      -0.2867
     14  CB      -125.9750  -30.1750   93.1700 C.3    71  LEU71       0.0270
     15  CG      -124.6790  -30.8250   92.6790 C.3    71  LEU71       0.0019
     16  CD1     -124.4700  -32.1460   93.4110 C.3    71  LEU71       0.0001
     17  CD2     -124.7390  -31.0550   91.1760 C.3    71  LEU71       0.0001
     18  N       -131.2620  -30.0410   94.5110 N.3    73  HIS73      -0.1241
     19  CA      -131.9180  -31.3430   94.7190 C.3    73  HIS73       0.1621
     20  C       -133.3950  -31.1660   95.0680 C.2    73  HIS73       0.2264
     21  O       -133.7360  -30.3460   95.9130 O.2    73  HIS73      -0.2867
     22  CB      -131.2680  -32.1040   95.8900 C.3    73  HIS73       0.0745
     23  CG      -129.8110  -32.4070   95.7090 C.ar   73  HIS73       0.0817
     24  ND1     -129.3540  -33.4560   94.9400 N.ar   73  HIS73      -0.2268
     25  CD2     -128.7090  -31.8270   96.2430 C.ar   73  HIS73       0.1154
     26  CE1     -128.0360  -33.5120   95.0100 C.ar   73  HIS73       0.1986
     27  NE2     -127.6190  -32.5350   95.7950 N.ar   73  HIS73      -0.2212
     28  N       -129.9700  -35.5900   86.9220 N.3   124  ILE124     -0.1245
     29  CA      -129.8090  -36.9210   87.5010 C.3   124  ILE124      0.1561
     30  C       -131.0690  -37.2580   88.2850 C.2   124  ILE124      0.2260
     31  O       -131.5890  -36.4170   89.0150 O.2   124  ILE124     -0.2867
     32  CB      -128.6030  -36.9410   88.4560 C.3   124  ILE124      0.0252
     33  CG1     -127.3650  -36.4250   87.7160 C.3   124  ILE124      0.0019
     34  CG2     -128.3410  -38.3650   88.9690 C.3   124  ILE124      0.0019
     35  CD1     -126.2400  -36.0140   88.6410 C.3   124  ILE124      0.0001
     36  N       -132.4340  -40.1120   90.9200 N.3   126  THR126     -0.1218
     37  CA      -132.1560  -41.2510   91.7940 C.3   126  THR126      0.1862
     38  C       -133.5220  -41.6610   92.3070 C.2   126  THR126      0.2287
     39  O       -134.2600  -40.8200   92.8120 O.2   126  THR126     -0.2866
     40  CB      -131.2960  -40.8420   92.9820 C.3   126  THR126      0.1770
     41  OG1     -130.0820  -40.2420   92.5010 O.3   126  THR126     -0.2211
     42  CG2     -130.9650  -42.0690   93.8440 C.3   126  THR126      0.0375
     43  N       -130.0410  -45.0790   89.4830 N.3   136  ILE136     -0.1245
     44  CA      -129.7310  -43.7070   89.0780 C.3   136  ILE136      0.1561
     45  C       -129.7930  -43.5640   87.5560 C.2   136  ILE136      0.2260
     46  O       -129.2190  -44.3670   86.8160 O.2   136  ILE136     -0.2867
     47  CB      -128.3020  -43.2810   89.5140 C.3   136  ILE136      0.0252
     48  CG1     -128.1420  -43.4350   91.0290 C.3   136  ILE136      0.0019
     49  CG2     -128.0430  -41.8050   89.1160 C.3   136  ILE136      0.0019
     50  CD1     -126.7260  -43.1720   91.5200 C.3   136  ILE136      0.0001
     51  N       -124.7150  -46.7690   96.3220 N.3   151  ARG151     -0.1245
     52  CA      -124.8920  -46.2650   97.6820 C.3   151  ARG151      0.1563
     53  C       -125.9730  -47.0670   98.4020 C.2   151  ARG151      0.2260
     54  O       -126.1930  -46.9060   99.6060 O.2   151  ARG151     -0.2867
     55  CB      -125.2840  -44.7840   97.6490 C.3   151  ARG151      0.0307
     56  CG      -124.2050  -43.8660   97.0780 C.3   151  ARG151      0.0489
     57  CD      -124.7200  -42.4430   96.8270 C.3   151  ARG151      0.2205
     58  NE      -125.8180  -42.4170   95.8600 N.pl3 151  ARG151     -0.0865
     59  CZ      -126.3680  -41.3080   95.3700 C.cat 151  ARG151      0.5346
     60  NH1     -125.9240  -40.1130   95.7490 N.pl3 151  ARG151      0.1354
     61  NH2     -127.3740  -41.3910   94.5050 N.pl3 151  ARG151      0.1354
     62  N       -130.7570  -45.5430  100.0310 N.3   154  THR154     -0.1203
     63  CA      -130.6120  -44.3870  100.9020 C.3   154  THR154      0.1994
     64  C       -131.8930  -43.5610  100.9610 C.2   154  THR154      0.2617
     65  O       -132.1100  -42.8100  101.9100 O.2   154  THR154     -0.2717
     66  CB      -129.4730  -43.4420  100.4310 C.3   154  THR154      0.1784
     67  OG1     -129.8570  -42.8000   99.2080 O.3   154  THR154     -0.2211
     68  CG2     -128.1840  -44.2130  100.2130 C.3   154  THR154      0.0376
     69  N       -132.7390  -43.6910   99.9450 N.am  155  LEU155     -0.1979
     70  CA      -133.9780  -42.9230   99.8970 C.3   155  LEU155      0.1596
     71  C       -135.1320  -43.5550  100.6750 C.2   155  LEU155      0.2287
     72  O       -136.0550  -42.8520  101.0910 O.2   155  LEU155     -0.2864
     73  CB      -134.4190  -42.7170   98.4410 C.3   155  LEU155      0.0297
     74  CG      -133.5660  -41.8310   97.5170 C.3   155  LEU155      0.0022
     75  CD1     -134.1700  -41.8350   96.1070 C.3   155  LEU155      0.0001
     76  CD2     -133.5130  -40.4100   98.0660 C.3   155  LEU155      0.0001
     77  N       -135.2350  -38.4410   93.8630 N.3   160  THR160     -0.1218
     78  CA      -134.5040  -37.1930   93.9910 C.3   160  THR160      0.1862
     79  C       -134.1500  -36.7360   92.5800 C.2   160  THR160      0.2287
     80  O       -133.6000  -37.5080   91.7880 O.2   160  THR160     -0.2866
     81  CB      -133.1620  -37.3360   94.7520 C.3   160  THR160      0.1770
     82  OG1     -133.4020  -37.5750   96.1450 O.3   160  THR160     -0.2211
     83  CG2     -132.3440  -36.0490   94.6070 C.3   160  THR160      0.0375
     84  N       -131.7800  -34.2990   90.7330 N.3   162  THR162     -0.1218
     85  CA      -130.5880  -33.4930   90.9800 C.3   162  THR162      0.1862
     86  C       -130.2090  -32.7600   89.6980 C.2   162  THR162      0.2287
     87  O       -130.0540  -33.3760   88.6470 O.2   162  THR162     -0.2866
     88  CB      -129.3970  -34.3810   91.4140 C.3   162  THR162      0.1770
     89  OG1     -129.6930  -34.9970   92.6750 O.3   162  THR162     -0.2211
     90  CG2     -128.1220  -33.5430   91.5430 C.3   162  THR162      0.0375
@<TRIPOS>BOND
     1    46    45    2
     2    28    29    1
     3    29    30    1
     4    29    32    1
     5    45    44    1
     6    33    32    1
     7    33    35    1
     8    30    31    2
     9    32    34    1
    10    87    86    2
    11    44    43    1
    12    44    47    1
    13    49    47    1
    14    47    48    1
    15    86    85    1
    16    84    85    1
    17    36    37    1
    18    85    88    1
    19    48    50    1
    20    17    15    1
    21    88    90    1
    22    88    89    1
    23    80    79    2
    24    37    38    1
    25    37    40    1
    26     4     3    2
    27    38    39    2
    28    41    40    1
    29    79    78    1
    30    11    10    1
    31    11    14    1
    32    11    12    1
    33    15    14    1
    34    15    16    1
    35    40    42    1
    36     3     2    1
    37    12    13    2
    38    77    78    1
    39    78    81    1
    40     2     5    1
    41     2     1    1
    42    61    59    1
    43    18    19    1
    44    83    81    1
    45    19    20    1
    46    19    22    1
    47    81    82    1
    48     5     6    1
    49    24    26   ar
    50    24    23   ar
    51    26    27   ar
    52    20    21    2
    53    59    60    1
    54    59    58    2
    55     6     7    1
    56    23    22    1
    57    23    25   ar
    58    27    25   ar
    59    58    57    1
    60    75    74    1
    61    51    52    1
    62    57    56    1
    63    56    55    1
    64     7     8    1
    65    74    76    1
    66    74    73    1
    67    55    52    1
    68    52    53    1
    69     8     9    1
    70    53    54    2
    71    73    70    1
    72    67    66    1
    73    70    69    1
    74    70    71    1
    75    69    64   am
    76    62    63    1
    77    68    66    1
    78    66    63    1
    79    71    72    2
    80    63    64    1
    81    64    65    2
