@<TRIPOS>MOLECULE
tmp/2h92B00.pdb
 179 167 0 0 0
SMALL
GASTEIGER

@<TRIPOS>ATOM
      1  N        -12.0490  159.4110   80.7810 N.3    10  ALA10      -0.1245
      2  CA       -10.8010  159.2250   80.0340 C.3    10  ALA10       0.1562
      3  C         -9.6220  160.0390   80.5590 C.2    10  ALA10       0.2260
      4  O         -9.7910  161.1630   81.0350 O.2    10  ALA10      -0.2867
      5  CB       -11.0450  159.5500   78.5680 C.3    10  ALA10       0.0290
      6  N         -6.4620  156.4160   86.0200 N.3    14  LYS14      -0.1245
      7  CA        -6.8730  155.0870   86.4610 C.3    14  LYS14       0.1561
      8  C         -5.8760  153.9370   86.3300 C.2    14  LYS14       0.2260
      9  O         -5.4970  153.3530   87.3390 O.2    14  LYS14      -0.2867
     10  CB        -8.2050  154.7040   85.8020 C.3    14  LYS14       0.0271
     11  CG        -9.3640  155.6300   86.1710 C.3    14  LYS14       0.0035
     12  CD       -10.7090  155.0360   85.7810 C.3    14  LYS14       0.0206
     13  CE       -10.7250  154.5720   84.3280 C.3    14  LYS14       0.1093
     14  NZ       -10.5640  155.7040   83.3780 N.3    14  LYS14      -0.1314
     15  N         -7.1260  146.0500   83.4670 N.3    31  ASP31      -0.1225
     16  CA        -7.4650  147.2290   82.6960 C.3    31  ASP31       0.1805
     17  C         -8.5670  146.8080   81.7110 C.2    31  ASP31       0.2598
     18  O         -8.2780  146.2050   80.6820 O.2    31  ASP31      -0.2718
     19  CB        -6.1780  147.6740   81.9760 C.3    31  ASP31       0.1424
     20  CG        -6.4120  148.7540   80.9280 C.2    31  ASP31       0.3668
     21  OD1       -5.4340  149.1040   80.2230 O.co2  31  ASP31      -0.2456
     22  OD2       -7.5450  149.2470   80.8090 O.co2  31  ASP31      -0.2456
     23  N         -9.8280  147.1190   82.0170 N.am   32  THR32      -0.1939
     24  CA       -10.9120  146.6910   81.1370 C.3    32  THR32       0.2028
     25  C        -10.9940  147.4950   79.8460 C.2    32  THR32       0.2643
     26  O        -11.5100  147.0140   78.8340 O.2    32  THR32      -0.2714
     27  CB       -12.3050  146.7020   81.8490 C.3    32  THR32       0.1808
     28  OG1      -12.6440  148.0310   82.2490 O.3    32  THR32      -0.2208
     29  CG2      -12.2890  145.7930   83.0840 C.3    32  THR32       0.0379
     30  N        -10.4900  148.7200   79.8700 N.am   33  GLY33      -0.1939
     31  CA       -10.5030  149.5000   78.6480 C.3    33  GLY33       0.2014
     32  C         -9.7460  148.7510   77.5540 C.2    33  GLY33       0.2638
     33  O        -10.1470  148.7560   76.3880 O.2    33  GLY33      -0.2714
     34  N         -8.6470  148.0900   77.9230 N.am   34  ALA34      -0.1977
     35  CA        -7.8560  147.3610   76.9360 C.3    34  ALA34       0.1597
     36  C         -8.7440  146.3420   76.2080 C.2    34  ALA34       0.2287
     37  O         -8.6400  146.1440   74.9920 O.2    34  ALA34      -0.2864
     38  CB        -6.7010  146.6750   77.6180 C.3    34  ALA34       0.0319
     39  N        -12.0770  146.4730   75.6040 N.3    36  TYR36      -0.1227
     40  CA       -12.9510  147.1110   74.6240 C.3    36  TYR36       0.1736
     41  C        -12.1410  147.6230   73.4490 C.2    36  TYR36       0.2595
     42  O        -12.6050  147.5620   72.3070 O.2    36  TYR36      -0.2718
     43  CB       -13.7700  148.2390   75.2730 C.3    36  TYR36       0.0548
     44  CG       -14.8150  147.6980   76.2190 C.ar   36  TYR36      -0.0200
     45  CD1      -14.6590  147.7850   77.6090 C.ar   36  TYR36      -0.0009
     46  CD2      -15.9410  147.0330   75.7200 C.ar   36  TYR36      -0.0009
     47  CE1      -15.6090  147.2110   78.4750 C.ar   36  TYR36       0.0417
     48  CE2      -16.8850  146.4690   76.5660 C.ar   36  TYR36       0.0417
     49  CZ       -16.7200  146.5590   77.9470 C.ar   36  TYR36       0.1957
     50  OH       -17.6890  146.0030   78.7820 O.3    36  TYR36      -0.2866
     51  N        -10.9290  148.1060   73.7170 N.am   37  ARG37      -0.1980
     52  CA       -10.0690  148.5910   72.6340 C.3    37  ARG37       0.1597
     53  C         -9.6760  147.4240   71.7020 C.2    37  ARG37       0.2287
     54  O         -9.6620  147.5830   70.4800 O.2    37  ARG37      -0.2864
     55  CB        -8.8060  149.2460   73.2150 C.3    37  ARG37       0.0334
     56  CG        -9.0670  150.6010   73.8660 C.3    37  ARG37       0.0492
     57  CD        -7.8680  151.0810   74.6930 C.3    37  ARG37       0.2205
     58  NE        -8.1200  152.3980   75.2730 N.pl3  37  ARG37      -0.0865
     59  CZ        -7.9920  153.5520   74.6150 C.cat  37  ARG37       0.5346
     60  NH1       -7.5970  153.5590   73.3440 N.pl3  37  ARG37       0.1354
     61  NH2       -8.2990  154.6960   75.2180 N.pl3  37  ARG37       0.1354
     62  N         -4.0280  152.1190   71.2930 N.3    85  ARG85      -0.1245
     63  CA        -4.1990  153.5400   71.5710 C.3    85  ARG85       0.1563
     64  C         -3.3600  154.4500   70.7040 C.2    85  ARG85       0.2260
     65  O         -2.5290  153.9880   69.9280 O.2    85  ARG85      -0.2867
     66  CB        -3.9330  153.8160   73.0530 C.3    85  ARG85       0.0307
     67  CG        -2.6370  153.2190   73.5580 C.3    85  ARG85       0.0489
     68  CD        -2.4690  153.3740   75.0630 C.3    85  ARG85       0.2205
     69  NE        -3.6010  152.8380   75.8170 N.pl3  85  ARG85      -0.0865
     70  CZ        -3.8730  151.5450   75.9330 C.cat  85  ARG85       0.5346
     71  NH1       -3.0920  150.6540   75.3450 N.pl3  85  ARG85       0.1354
     72  NH2       -4.9250  151.1470   76.6370 N.pl3  85  ARG85       0.1354
     73  N        -13.5930  153.2620   69.8190 N.3    93  VAL93      -0.1231
     74  CA       -13.9180  152.4150   70.9440 C.3    93  VAL93       0.1692
     75  C        -15.2430  152.7270   71.6360 C.2    93  VAL93       0.2592
     76  O        -15.9590  151.8060   71.9930 O.2    93  VAL93      -0.2718
     77  CB       -12.7950  152.3780   71.9940 C.3    93  VAL93       0.0266
     78  CG1      -12.5970  153.7510   72.6200 C.3    93  VAL93       0.0020
     79  CG2      -13.1390  151.3230   73.0500 C.3    93  VAL93       0.0020
     80  N        -15.5740  153.9990   71.8410 N.am   94  SER94      -0.1952
     81  CA       -16.8360  154.3430   72.5000 C.3    94  SER94       0.1924
     82  C        -18.0100  153.7240   71.7710 C.2    94  SER94       0.2314
     83  O        -18.9540  153.2070   72.3770 O.2    94  SER94      -0.2863
     84  CB       -17.0700  155.8550   72.5260 C.3    94  SER94       0.2116
     85  OG       -16.2050  156.4700   73.4540 O.3    94  SER94      -0.2180
     86  N        -17.9170  149.8880   72.2670 N.3    97  ALA97      -0.1245
     87  CA       -18.2040  149.5260   73.6480 C.3    97  ALA97       0.1562
     88  C        -19.6790  149.7320   74.0300 C.2    97  ALA97       0.2260
     89  O        -20.1320  149.2350   75.0560 O.2    97  ALA97      -0.2867
     90  CB       -17.2840  150.3150   74.5840 C.3    97  ALA97       0.0290
     91  N        -20.3840  144.2660   75.2090 N.3   103  ARG103     -0.1245
     92  CA       -20.4050  144.4090   76.6620 C.3   103  ARG103      0.1563
     93  C        -20.6190  143.0890   77.3940 C.2   103  ARG103      0.2260
     94  O        -19.9780  142.8260   78.4140 O.2   103  ARG103     -0.2867
     95  CB       -21.4920  145.4030   77.0670 C.3   103  ARG103      0.0307
     96  CG       -21.2850  146.8070   76.4890 C.3   103  ARG103      0.0489
     97  CD       -21.8230  147.8650   77.4410 C.3   103  ARG103      0.2205
     98  NE       -21.0370  147.9460   78.6710 N.pl3 103  ARG103     -0.0865
     99  CZ       -19.8570  148.5500   78.7650 C.cat 103  ARG103      0.5346
    100  NH1      -19.3300  149.1280   77.6900 N.pl3 103  ARG103      0.1354
    101  NH2      -19.2090  148.5860   79.9330 N.pl3 103  ARG103      0.1354
    102  N        -14.6160  139.6030   82.5170 N.3   110  GLN110     -0.1245
    103  CA       -14.1470  140.4110   83.6350 C.3   110  GLN110      0.1566
    104  C        -14.5340  139.7960   84.9830 C.2   110  GLN110      0.2260
    105  O        -13.7390  139.7840   85.9200 O.2   110  GLN110     -0.2867
    106  CB       -14.6940  141.8300   83.5040 C.3   110  GLN110      0.0367
    107  CG       -13.9730  142.6850   82.4590 C.3   110  GLN110      0.0905
    108  CD       -14.9010  143.7110   81.8270 C.2   110  GLN110      0.2608
    109  OE1      -15.8760  144.1390   82.4430 O.2   110  GLN110     -0.2717
    110  NE2      -14.6040  144.1040   80.5910 N.am  110  GLN110     -0.0878
    111  N        -10.1180  148.5520   86.8060 N.3   122  ASP122     -0.1225
    112  CA       -10.5280  149.8990   86.4300 C.3   122  ASP122      0.1805
    113  C        -11.4510  149.8140   85.2260 C.2   122  ASP122      0.2598
    114  O        -11.4920  148.7970   84.5310 O.2   122  ASP122     -0.2718
    115  CB        -9.3170  150.8080   86.1420 C.3   122  ASP122      0.1424
    116  CG        -8.7540  150.6660   84.7130 C.2   122  ASP122      0.3668
    117  OD1       -7.8500  151.4590   84.3630 O.co2 122  ASP122     -0.2456
    118  OD2       -9.1870  149.7960   83.9430 O.co2 122  ASP122     -0.2456
    119  N        -12.2050  150.8770   84.9860 N.am  123  GLY123     -0.1942
    120  CA       -13.1250  150.8870   83.8680 C.3   123  GLY123      0.2014
    121  C        -14.1420  152.0070   83.9850 C.2   123  GLY123      0.2639
    122  O        -13.8360  153.0760   84.5060 O.2   123  GLY123     -0.2714
    123  N        -15.3490  151.7570   83.4890 N.am  124  ARG124     -0.1963
    124  CA       -16.4360  152.7360   83.5140 C.3   124  ARG124      0.1729
    125  C        -17.6300  152.2270   84.3250 C.2   124  ARG124      0.2616
    126  O        -18.3090  153.0030   84.9960 O.2   124  ARG124     -0.2715
    127  CB       -16.9210  153.0260   82.0880 C.3   124  ARG124      0.0348
    128  CG       -15.8490  153.5320   81.1130 C.3   124  ARG124      0.0492
    129  CD       -15.3940  154.9350   81.5080 C.3   124  ARG124      0.2205
    130  NE       -14.4230  155.5300   80.5920 N.pl3 124  ARG124     -0.0865
    131  CZ       -13.1540  155.1540   80.4880 C.cat 124  ARG124      0.5346
    132  NH1      -12.6900  154.1650   81.2440 N.pl3 124  ARG124      0.1354
    133  NH2      -12.3370  155.7990   79.6540 N.pl3 124  ARG124      0.1354
    134  N        -17.8870  150.9200   84.2540 N.am  125  ASP125     -0.1957
    135  CA       -19.0280  150.3300   84.9520 C.3   125  ASP125      0.1840
    136  C        -18.6210  149.2220   85.9050 C.2   125  ASP125      0.2621
    137  O        -19.3770  148.2700   86.1310 O.2   125  ASP125     -0.2715
    138  CB       -20.0170  149.7750   83.9280 C.3   125  ASP125      0.1450
    139  CG       -19.4420  148.5920   83.1540 C.2   125  ASP125      0.3671
    140  OD1      -18.1960  148.4840   83.0890 O.co2 125  ASP125     -0.2456
    141  OD2      -20.2320  147.7830   82.6160 O.co2 125  ASP125     -0.2456
    142  N        -17.4300  149.3340   86.4750 N.am  126  ILE126     -0.1977
    143  CA       -16.9830  148.2820   87.3780 C.3   126  ILE126      0.1596
    144  C        -17.7580  148.2950   88.6900 C.2   126  ILE126      0.2287
    145  O        -18.2680  147.2620   89.1390 O.2   126  ILE126     -0.2864
    146  CB       -15.4810  148.3940   87.6730 C.3   126  ILE126      0.0276
    147  CG1      -14.7030  148.5040   86.3530 C.3   126  ILE126      0.0022
    148  CG2      -15.0080  147.1750   88.4460 C.3   126  ILE126      0.0022
    149  CD1      -15.0320  147.4090   85.3320 C.3   126  ILE126      0.0001
    150  N        -15.4460  161.4090   74.0440 N.3   174  ARG174     -0.1245
    151  CA       -15.4960  160.0140   74.4910 C.3   174  ARG174      0.1563
    152  C        -16.2710  159.9420   75.8010 C.2   174  ARG174      0.2260
    153  O        -17.1650  159.0990   75.9440 O.2   174  ARG174     -0.2867
    154  CB       -14.0710  159.4420   74.6540 C.3   174  ARG174      0.0307
    155  CG       -13.8590  158.0750   73.9840 C.3   174  ARG174      0.0489
    156  CD       -12.3960  157.6100   74.0130 C.3   174  ARG174      0.2205
    157  NE       -12.0150  157.1330   75.3310 N.pl3 174  ARG174     -0.0865
    158  CZ       -10.8480  157.3700   75.9040 C.cat 174  ARG174      0.5346
    159  NH1       -9.9310  158.0840   75.2800 N.pl3 174  ARG174      0.1354
    160  NH2      -10.6050  156.8950   77.1110 N.pl3 174  ARG174      0.1354
    161  N        -19.7320  157.9230   76.4300 N.3   178  ASP178     -0.1239
    162  CA       -19.7870  156.8900   77.4660 C.3   178  ASP178      0.1674
    163  C        -20.7810  157.1790   78.5930 C.2   178  ASP178      0.2266
    164  O        -21.2940  156.2500   79.2110 O.2   178  ASP178     -0.2867
    165  CB       -18.4020  156.6700   78.0730 C.3   178  ASP178      0.1410
    166  CG       -17.3800  156.1180   77.0620 C.2   178  ASP178      0.3668
    167  OD1      -17.7670  155.4900   76.0530 O.co2 178  ASP178     -0.2456
    168  OD2      -16.1730  156.3050   77.2940 O.co2 178  ASP178     -0.2456
    169  N        -24.5180  156.6690   76.6760 N.3   181  ARG181     -0.1245
    170  CA       -24.9540  155.4490   76.0080 C.3   181  ARG181      0.1563
    171  C        -26.0360  154.7560   76.8220 C.2   181  ARG181      0.2260
    172  O        -26.1120  154.9080   78.0340 O.2   181  ARG181     -0.2867
    173  CB       -23.7930  154.4750   75.7950 C.3   181  ARG181      0.0307
    174  CG       -23.3300  153.7910   77.0620 C.3   181  ARG181      0.0489
    175  CD       -22.1770  152.8450   76.7810 C.3   181  ARG181      0.2205
    176  NE       -21.5530  152.3890   78.0170 N.pl3 181  ARG181     -0.0865
    177  CZ       -20.2420  152.2620   78.1750 C.cat 181  ARG181      0.5346
    178  NH1      -19.4280  152.5600   77.1700 N.pl3 181  ARG181      0.1354
    179  NH2      -19.7440  151.8510   79.3300 N.pl3 181  ARG181      0.1354
@<TRIPOS>BOND
     1    73    74    1
     2    65    64    2
     3    54    53    2
     4    64    63    1
     5    74    75    1
     6    74    77    1
     7    62    63    1
     8    63    66    1
     9    75    80   am
    10    75    76    2
    11    53    52    1
    12    82    83    2
    13    82    81    1
    14    80    81    1
    15    77    78    1
    16    77    79    1
    17    86    87    1
    18    42    41    2
    19    81    84    1
    20    84    85    1
    21    52    55    1
    22    52    51    1
    23    66    67    1
    24    55    56    1
    25    60    59    1
    26    41    51   am
    27    41    40    1
    28    67    68    1
    29    87    88    1
    30    87    90    1
    31    56    57    1
    32   155   156    1
    33   155   154    1
    34   156   157    1
    35    88    89    2
    36   150   151    1
    37   151   154    1
    38   151   152    1
    39    59    61    1
    40    59    58    2
    41    40    43    1
    42    40    39    1
    43    57    58    1
    44    37    36    2
    45    68    69    1
    46    91    92    1
    47    43    44    1
    48   159   158    1
    49   157   158    2
    50    71    70    1
    51    46    44   ar
    52    46    48   ar
    53   173   170    1
    54   173   174    1
    55   152   153    2
    56    69    70    2
    57   158   160    1
    58    70    72    1
    59   170   169    1
    60   170   171    1
    61   167   166   ar
    62    36    35    1
    63    44    45   ar
    64    33    32    2
    65   161   162    1
    66    96    95    1
    67    96    97    1
    68    48    49   ar
    69    92    95    1
    70    92    93    1
    71   175   174    1
    72   175   176    1
    73   171   172    2
    74    35    38    1
    75    35    34    1
    76   166   168   ar
    77   166   165    1
    78   178   177    1
    79    93    94    2
    80    97    98    1
    81   162   165    1
    82   162   163    1
    83    32    34   am
    84    32    31    1
    85    45    47   ar
    86   100    99    1
    87    49    47   ar
    88    49    50    1
    89   176   177    2
    90   177   179    1
    91     5     2    1
    92   163   164    2
    93    31    30    1
    94    98    99    2
    95    99   101    1
    96    26    25    2
    97   133   131    1
    98    25    30   am
    99    25    24    1
   100     2     3    1
   101     2     1    1
   102    21    20   ar
   103   131   130    2
   104   131   132    1
   105     3     4    2
   106   110   108   am
   107   130   129    1
   108    18    17    2
   109    22    20   ar
   110    20    19    1
   111   128   129    1
   112   128   127    1
   113    24    27    1
   114    24    23    1
   115    17    23   am
   116    17    16    1
   117   108   109    2
   118   108   107    1
   119    27    28    1
   120    27    29    1
   121    19    16    1
   122   127   124    1
   123   107   106    1
   124   102   103    1
   125   141   139   ar
   126    16    15    1
   127   140   139   ar
   128   139   138    1
   129    14    13    1
   130   123   124    1
   131   123   121   am
   132   106   103    1
   133   124   125    1
   134   103   104    1
   135   120   121    1
   136   120   119    1
   137   138   135    1
   138   118   116   ar
   139   121   122    2
   140   134   125   am
   141   134   135    1
   142   125   126    2
   143    13    12    1
   144   117   116   ar
   145   114   113    2
   146   116   115    1
   147   135   136    1
   148   104   105    2
   149   119   113   am
   150   113   112    1
   151   149   147    1
   152    12    11    1
   153    10    11    1
   154    10     7    1
   155   136   137    2
   156   136   142   am
   157     6     7    1
   158   115   112    1
   159     8     7    1
   160     8     9    2
   161   147   146    1
   162   112   111    1
   163   142   143    1
   164   143   146    1
   165   143   144    1
   166   146   148    1
   167   144   145    2
