@<TRIPOS>MOLECULE
tmp/2h92B01.pdb
 81 77 0 0 0
SMALL
GASTEIGER

@<TRIPOS>ATOM
      1  N         -0.1480  143.5080   96.5860 N.3    26  SER26      -0.1202
      2  CA         0.1120  142.1890   96.0270 C.3    26  SER26       0.2020
      3  C         -1.1550  141.6600   95.3700 C.2    26  SER26       0.2619
      4  O         -1.5670  140.5220   95.6050 O.2    26  SER26      -0.2717
      5  CB         0.5800  141.2270   97.1210 C.3    26  SER26       0.2103
      6  OG         1.8750  141.5990   97.5400 O.3    26  SER26      -0.2182
      7  N         -1.7780  142.5080   94.5600 N.am   27  MET27      -0.1965
      8  CA        -2.9990  142.1480   93.8450 C.3    27  MET27       0.1736
      9  C         -2.7560  142.2870   92.3470 C.2    27  MET27       0.2616
     10  O         -1.6940  142.7460   91.9070 O.2    27  MET27      -0.2715
     11  CB        -4.1470  143.0810   94.2450 C.3    27  MET27       0.0427
     12  CG        -4.6020  142.9710   95.6940 C.3    27  MET27       0.0599
     13  SD        -5.7950  144.2800   96.1250 S.3    27  MET27      -0.1393
     14  CE        -7.2990  143.7430   95.2010 C.3    27  MET27       0.0692
     15  N         -3.7390  141.9040   91.5490 N.am   28  ILE28      -0.1977
     16  CA        -3.5730  142.0460   90.1130 C.3    28  ILE28       0.1596
     17  C         -4.4550  143.1560   89.5510 C.2    28  ILE28       0.2287
     18  O         -5.6120  143.3300   89.9340 O.2    28  ILE28      -0.2864
     19  CB        -3.8440  140.7230   89.3980 C.3    28  ILE28       0.0276
     20  CG1       -2.6340  139.8110   89.6160 C.3    28  ILE28       0.0022
     21  CG2       -4.0710  140.9510   87.9090 C.3    28  ILE28       0.0022
     22  CD1       -2.9770  138.3530   89.6520 C.3    28  ILE28       0.0001
     23  N         -0.7070  138.2350   82.0670 N.3    65  TYR65      -0.1241
     24  CA         0.2220  139.1320   82.7370 C.3    65  TYR65       0.1605
     25  C          1.6800  138.7010   82.7050 C.2    65  TYR65       0.2264
     26  O          2.0040  137.5260   82.8830 O.2    65  TYR65      -0.2867
     27  CB        -0.2630  139.3460   84.1710 C.3    65  TYR65       0.0534
     28  CG        -1.6830  139.8550   84.1810 C.ar   65  TYR65      -0.0201
     29  CD1       -2.7550  138.9890   83.9700 C.ar   65  TYR65      -0.0009
     30  CD2       -1.9500  141.2270   84.2820 C.ar   65  TYR65      -0.0009
     31  CE1       -4.0640  139.4720   83.8450 C.ar   65  TYR65       0.0417
     32  CE2       -3.2400  141.7240   84.1610 C.ar   65  TYR65       0.0417
     33  CZ        -4.2920  140.8450   83.9380 C.ar   65  TYR65       0.1957
     34  OH        -5.5630  141.3420   83.7630 O.3    65  TYR65      -0.2866
     35  N          4.0860  142.0560   86.0010 N.3    69  LYS69      -0.1245
     36  CA         2.6430  142.0470   86.2490 C.3    69  LYS69       0.1561
     37  C          1.8850  142.9510   85.2730 C.2    69  LYS69       0.2260
     38  O          0.6990  143.2280   85.4630 O.2    69  LYS69      -0.2867
     39  CB         2.3180  142.4840   87.6830 C.3    69  LYS69       0.0271
     40  CG         3.0310  141.6920   88.7810 C.3    69  LYS69       0.0035
     41  CD         2.5910  140.2460   88.8400 C.3    69  LYS69       0.0206
     42  CE         3.3000  139.5090   89.9650 C.3    69  LYS69       0.1093
     43  NZ         2.7340  138.1380   90.1550 N.3    69  LYS69      -0.1314
     44  N        -12.4460  136.7840   85.7900 N.3   113  LEU113     -0.1245
     45  CA       -11.1360  137.1970   86.2600 C.3   113  LEU113      0.1561
     46  C        -11.1320  137.5930   87.7250 C.2   113  LEU113      0.2260
     47  O        -10.1120  137.4480   88.4090 O.2   113  LEU113     -0.2867
     48  CB       -10.6050  138.3830   85.4530 C.3   113  LEU113      0.0270
     49  CG        -9.7340  138.0630   84.2370 C.3   113  LEU113      0.0019
     50  CD1      -10.5750  137.3860   83.1650 C.3   113  LEU113      0.0001
     51  CD2       -9.1180  139.3440   83.7030 C.3   113  LEU113      0.0001
     52  N        -12.2000  135.0380   92.1870 N.3   116  GLU116     -0.1231
     53  CA       -11.4180  134.7120   93.3750 C.3   116  GLU116      0.1699
     54  C        -10.8780  135.9610   94.0580 C.2   116  GLU116      0.2592
     55  O         -9.9750  135.8820   94.9020 O.2   116  GLU116     -0.2718
     56  CB       -10.2430  133.8100   92.9940 C.3   116  GLU116      0.0402
     57  CG       -10.3670  132.3730   93.4600 C.3   116  GLU116      0.1161
     58  CD       -11.5740  131.6740   92.8850 C.2   116  GLU116      0.3649
     59  OE1      -12.7090  132.1130   93.1700 O.co2 116  GLU116     -0.2457
     60  OE2      -11.3890  130.6800   92.1530 O.co2 116  GLU116     -0.2457
     61  N        -11.4240  137.1150   93.6890 N.am  117  LYS117     -0.1966
     62  CA       -10.9940  138.3830   94.2630 C.3   117  LYS117      0.1728
     63  C         -9.5050  138.6220   94.0250 C.2   117  LYS117      0.2617
     64  O         -8.8570  137.9160   93.2620 O.2   117  LYS117     -0.2715
     65  CB       -11.2480  138.4110   95.7670 C.3   117  LYS117      0.0311
     66  CG       -12.6370  137.9850   96.2060 C.3   117  LYS117      0.0038
     67  CD       -13.7030  138.8850   95.6400 C.3   117  LYS117      0.0206
     68  CE       -15.0200  138.6660   96.3530 C.3   117  LYS117      0.1093
     69  NZ       -14.8820  138.9980   97.7960 N.3   117  LYS117     -0.1314
     70  N         -8.9660  139.6240   94.7050 N.am  118  GLY118     -0.1940
     71  CA        -7.5620  139.9460   94.5500 C.3   118  GLY118      0.2014
     72  C         -7.3240  140.8230   93.3430 C.2   118  GLY118      0.2638
     73  O         -6.1800  141.0370   92.9250 O.2   118  GLY118     -0.2714
     74  N         -8.4090  141.3530   92.7880 N.am  119  ILE119     -0.1977
     75  CA        -8.3040  142.2010   91.6060 C.3   119  ILE119      0.1596
     76  C         -8.5750  143.6880   91.8310 C.2   119  ILE119      0.2287
     77  O         -9.5110  144.0590   92.5360 O.2   119  ILE119     -0.2864
     78  CB        -9.2960  141.7790   90.5160 C.3   119  ILE119      0.0276
     79  CG1       -9.1530  140.2830   90.1920 C.3   119  ILE119      0.0022
     80  CG2       -9.0690  142.6560   89.2810 C.3   119  ILE119      0.0022
     81  CD1       -7.7680  139.8810   89.7480 C.3   119  ILE119      0.0001
@<TRIPOS>BOND
     1    23    24    1
     2    25    24    1
     3    25    26    2
     4    24    27    1
     5    50    49    1
     6    51    49    1
     7    34    33    1
     8    31    33   ar
     9    31    29   ar
    10    33    32   ar
    11    29    28   ar
    12    32    30   ar
    13    27    28    1
    14    28    30   ar
    15    49    48    1
    16    37    38    2
    17    37    36    1
    18    48    45    1
    19    44    45    1
    20    35    36    1
    21    36    39    1
    22    45    46    1
    23    39    40    1
    24    46    47    2
    25    21    19    1
    26    40    41    1
    27    41    42    1
    28    80    78    1
    29    19    20    1
    30    19    16    1
    31    17    18    2
    32    17    16    1
    33    20    22    1
    34    81    79    1
    35    42    43    1
    36    16    15    1
    37    79    78    1
    38    78    75    1
    39    15     9   am
    40    75    76    1
    41    75    74    1
    42    76    77    2
    43    10     9    2
    44    60    58   ar
    45    52    53    1
    46     9     8    1
    47    74    72   am
    48    58    59   ar
    49    58    57    1
    50    73    72    2
    51    56    53    1
    52    56    57    1
    53    64    63    2
    54    72    71    1
    55    53    54    1
    56    61    54   am
    57    61    62    1
    58     8    11    1
    59     8     7    1
    60    63    62    1
    61    63    70   am
    62    54    55    2
    63    11    12    1
    64    62    65    1
    65    71    70    1
    66     7     3   am
    67    14    13    1
    68     3     4    2
    69     3     2    1
    70    67    66    1
    71    67    68    1
    72    12    13    1
    73    65    66    1
    74     2     1    1
    75     2     5    1
    76    68    69    1
    77     5     6    1
