@<TRIPOS>MOLECULE
tmp/2h96A00.pdb
 198 189 0 0 0
SMALL
GASTEIGER

@<TRIPOS>ATOM
      1  N          5.5630   97.9420   46.9290 N.3    77  LYS77      -0.1245
      2  CA         5.5290   98.9640   47.9760 C.3    77  LYS77       0.1561
      3  C          6.6950   98.7790   48.9220 C.2    77  LYS77       0.2260
      4  O          6.9150   99.5960   49.8160 O.2    77  LYS77      -0.2867
      5  CB         4.2230   98.8860   48.7720 C.3    77  LYS77       0.0271
      6  CG         4.0230   97.5590   49.4870 C.3    77  LYS77       0.0035
      7  CD         2.5840   97.3420   49.9320 C.3    77  LYS77       0.0206
      8  CE         2.2000   98.2450   51.0800 C.3    77  LYS77       0.1093
      9  NZ         0.7780   98.0090   51.4550 N.3    77  LYS77      -0.1314
     10  N         13.1860  107.5090   55.7280 N.3   106  ASP106     -0.1225
     11  CA        13.8130  108.2760   56.7970 C.3   106  ASP106      0.1805
     12  C         15.2010  107.8240   57.2530 C.2   106  ASP106      0.2597
     13  O         16.0320  108.6550   57.6210 O.2   106  ASP106     -0.2718
     14  CB        12.8940  108.3310   58.0250 C.3   106  ASP106      0.1424
     15  CG        11.6500  109.1720   57.7950 C.2   106  ASP106      0.3668
     16  OD1       11.7490  110.2430   57.1650 O.co2 106  ASP106     -0.2456
     17  OD2       10.5690  108.7680   58.2680 O.co2 106  ASP106     -0.2456
     18  N         15.4720  106.5240   57.2470 N.am  107  ALA107     -0.1979
     19  CA        16.7840  106.0800   57.7060 C.3   107  ALA107      0.1597
     20  C         17.2840  104.7330   57.1980 C.2   107  ALA107      0.2287
     21  O         16.7420  104.1390   56.2710 O.2   107  ALA107     -0.2864
     22  CB        16.8160  106.0940   59.2300 C.3   107  ALA107      0.0319
     23  N         20.1010  101.9830   61.6560 N.3   111  GLN111     -0.1231
     24  CA        19.4650  102.8630   62.6260 C.3   111  GLN111      0.1698
     25  C         18.5310  102.0500   63.5090 C.2   111  GLN111      0.2592
     26  O         18.3940  102.3240   64.7020 O.2   111  GLN111     -0.2718
     27  CB        18.6660  103.9430   61.8970 C.3   111  GLN111      0.0381
     28  CG        17.8270  104.8570   62.7890 C.3   111  GLN111      0.0905
     29  CD        18.6640  105.8050   63.6270 C.2   111  GLN111      0.2608
     30  OE1       19.2500  105.4100   64.6340 O.2   111  GLN111     -0.2717
     31  NE2       18.7310  107.0660   63.2070 N.am  111  GLN111     -0.0878
     32  N         17.8780  101.0550   62.9160 N.am  112  VAL112     -0.1980
     33  CA        16.9620  100.2030   63.6630 C.3   112  VAL112      0.1595
     34  C         17.7880   99.2490   64.5200 C.2   112  VAL112      0.2287
     35  O         17.5610   99.1160   65.7240 O.2   112  VAL112     -0.2864
     36  CB        16.0590   99.3770   62.7280 C.3   112  VAL112      0.0276
     37  CG1       15.0660   98.5910   63.5460 C.3   112  VAL112      0.0022
     38  CG2       15.3310  100.2810   61.7580 C.3   112  VAL112      0.0022
     39  N         18.4370   99.9770   68.0910 N.3   115  MET115     -0.1245
     40  CA        17.3540  100.2150   69.0350 C.3   115  MET115      0.1570
     41  C         16.5970   98.9200   69.2870 C.2   115  MET115      0.2261
     42  O         16.5700   98.0270   68.4440 O.2   115  MET115     -0.2867
     43  CB        16.4090  101.3230   68.5270 C.3   115  MET115      0.0387
     44  CG        16.1100  101.3130   67.0340 C.3   115  MET115      0.0595
     45  SD        15.1710  102.7670   66.5140 S.3   115  MET115     -0.1393
     46  CE        13.6170  102.0040   66.0800 C.3   115  MET115      0.0692
     47  N         13.3930   96.8040   69.5120 N.3   117  LEU117     -0.1245
     48  CA        12.0260   96.7880   69.0230 C.3   117  LEU117      0.1561
     49  C         11.2250   95.7940   69.8270 C.2   117  LEU117      0.2260
     50  O         11.6670   95.3290   70.8690 O.2   117  LEU117     -0.2867
     51  CB        11.9820   96.3790   67.5520 C.3   117  LEU117      0.0270
     52  CG        12.8540   97.1770   66.5870 C.3   117  LEU117      0.0019
     53  CD1       12.4630   96.8010   65.1820 C.3   117  LEU117      0.0001
     54  CD2       12.6850   98.6730   66.8060 C.3   117  LEU117      0.0001
     55  N          5.9480   93.1560   67.5540 N.3   120  GLU120     -0.1231
     56  CA         5.0840   93.8450   66.6030 C.3   120  GLU120      0.1699
     57  C          5.9500   94.4390   65.5000 C.2   120  GLU120      0.2592
     58  O          5.8160   94.0860   64.3320 O.2   120  GLU120     -0.2718
     59  CB         4.3370   94.9750   67.3080 C.3   120  GLU120      0.0402
     60  CG         3.7820   94.5930   68.6660 C.3   120  GLU120      0.1161
     61  CD         2.6510   93.6050   68.5610 C.2   120  GLU120      0.3649
     62  OE1        2.8010   92.6250   67.8060 O.co2 120  GLU120     -0.2457
     63  OE2        1.6180   93.8080   69.2350 O.co2 120  GLU120     -0.2457
     64  N          6.8500   95.3350   65.8950 N.am  121  ARG121     -0.1980
     65  CA         7.7410   96.0160   64.9640 C.3   121  ARG121      0.1597
     66  C          8.6710   95.0810   64.1980 C.2   121  ARG121      0.2287
     67  O          8.6510   95.0360   62.9640 O.2   121  ARG121     -0.2864
     68  CB         8.6050   97.0430   65.7060 C.3   121  ARG121      0.0334
     69  CG         7.8920   97.8940   66.7420 C.3   121  ARG121      0.0492
     70  CD         6.7910   98.7500   66.1440 C.3   121  ARG121      0.2205
     71  NE         6.1150   99.5330   67.1760 N.pl3 121  ARG121     -0.0865
     72  CZ         6.3870  100.8010   67.4490 C.cat 121  ARG121      0.5346
     73  NH1        7.3200  101.4340   66.7580 N.pl3 121  ARG121      0.1354
     74  NH2        5.7440  101.4280   68.4260 N.pl3 121  ARG121      0.1354
     75  N          6.9700   92.7830   61.8350 N.3   124  TYR124     -0.1227
     76  CA         6.3900   93.5000   60.7090 C.3   124  TYR124      0.1736
     77  C          7.5110   93.8980   59.7600 C.2   124  TYR124      0.2595
     78  O          7.4330   93.6350   58.5610 O.2   124  TYR124     -0.2718
     79  CB         5.5920   94.7320   61.1800 C.3   124  TYR124      0.0548
     80  CG         4.8180   95.3930   60.0560 C.ar  124  TYR124     -0.0200
     81  CD1        4.0870   94.6260   59.1600 C.ar  124  TYR124     -0.0009
     82  CD2        4.8750   96.7670   59.8470 C.ar  124  TYR124     -0.0009
     83  CE1        3.4450   95.2040   58.0760 C.ar  124  TYR124      0.0417
     84  CE2        4.2320   97.3550   58.7640 C.ar  124  TYR124      0.0417
     85  CZ         3.5230   96.5630   57.8790 C.ar  124  TYR124      0.1957
     86  OH         2.9160   97.1150   56.7720 O.3   124  TYR124     -0.2866
     87  N          8.5590   94.5120   60.2990 N.am  125  LEU125     -0.1980
     88  CA         9.6970   94.9110   59.4820 C.3   125  LEU125      0.1596
     89  C         10.2390   93.7510   58.6230 C.2   125  LEU125      0.2287
     90  O         10.5090   93.9210   57.4270 O.2   125  LEU125     -0.2864
     91  CB        10.7980   95.4590   60.3800 C.3   125  LEU125      0.0297
     92  CG        10.5090   96.8630   60.8860 C.3   125  LEU125      0.0022
     93  CD1       11.6510   97.3850   61.7430 C.3   125  LEU125      0.0001
     94  CD2       10.3150   97.7510   59.6740 C.3   125  LEU125      0.0001
     95  N          8.6170   91.0920   57.7660 N.3   127  TYR127     -0.1241
     96  CA         7.5340   90.7630   56.8380 C.3   127  TYR127      0.1605
     97  C          7.6480   91.5760   55.5620 C.2   127  TYR127      0.2264
     98  O          7.6120   91.0370   54.4480 O.2   127  TYR127     -0.2867
     99  CB         6.1680   91.0640   57.4460 C.3   127  TYR127      0.0534
    100  CG         5.0520   90.9310   56.4300 C.ar  127  TYR127     -0.0201
    101  CD1        4.7650   89.7050   55.8500 C.ar  127  TYR127     -0.0009
    102  CD2        4.3160   92.0340   56.0200 C.ar  127  TYR127     -0.0009
    103  CE1        3.7790   89.5770   54.8890 C.ar  127  TYR127      0.0417
    104  CE2        3.3250   91.9170   55.0550 C.ar  127  TYR127      0.0417
    105  CZ         3.0610   90.6840   54.4940 C.ar  127  TYR127      0.1957
    106  OH         2.0770   90.5410   53.5420 O.3   127  TYR127     -0.2866
    107  N         14.0590  102.4780   56.3140 N.3   153  VAL153     -0.1231
    108  CA        12.8210  102.5540   57.0690 C.3   153  VAL153      0.1692
    109  C         12.3900  104.0050   57.1380 C.2   153  VAL153      0.2592
    110  O         13.2040  104.9150   56.9870 O.2   153  VAL153     -0.2718
    111  CB        12.9950  102.0560   58.5100 C.3   153  VAL153      0.0266
    112  CG1       13.3070  100.5750   58.5170 C.3   153  VAL153      0.0020
    113  CG2       14.0920  102.8500   59.1980 C.3   153  VAL153      0.0020
    114  N         11.1020  104.2080   57.3770 N.am  154  LYS154     -0.1966
    115  CA        10.5210  105.5380   57.4690 C.3   154  LYS154      0.1728
    116  C          9.7550  105.5500   58.7890 C.2   154  LYS154      0.2617
    117  O          9.3700  104.4910   59.2890 O.2   154  LYS154     -0.2715
    118  CB         9.5840  105.7550   56.2740 C.3   154  LYS154      0.0311
    119  CG         8.9350  107.1170   56.1610 C.3   154  LYS154      0.0038
    120  CD         8.0570  107.1780   54.9140 C.3   154  LYS154      0.0206
    121  CE         7.2920  108.4940   54.8270 C.3   154  LYS154      0.1093
    122  NZ         6.4300  108.5790   53.6070 N.3   154  LYS154     -0.1314
    123  N          9.5370  106.7340   59.3510 N.am  155  SER155     -0.1936
    124  CA         8.8360  106.8740   60.6220 C.3   155  SER155      0.2055
    125  C          7.5070  106.1190   60.7830 C.2   155  SER155      0.2643
    126  O          7.0820  105.8360   61.9030 O.2   155  SER155     -0.2714
    127  CB         8.6070  108.3460   60.9070 C.3   155  SER155      0.2130
    128  OG         7.9610  108.4970   62.1550 O.3   155  SER155     -0.2179
    129  N          6.8440  105.7980   59.6780 N.am  156  ASP156     -0.1957
    130  CA         5.5740  105.0840   59.7490 C.3   156  ASP156      0.1840
    131  C          5.7680  103.5710   59.7800 C.2   156  ASP156      0.2622
    132  O          4.8610  102.7980   59.4460 O.2   156  ASP156     -0.2715
    133  CB         4.6730  105.4670   58.5760 C.3   156  ASP156      0.1450
    134  CG         5.3320  105.2460   57.2400 C.2   156  ASP156      0.3671
    135  OD1        5.9770  104.1910   57.0670 O.co2 156  ASP156     -0.2456
    136  OD2        5.1930  106.1230   56.3600 O.co2 156  ASP156     -0.2456
    137  N          6.9660  103.1680   60.1850 N.am  157  CYS157     -0.1968
    138  CA         7.3460  101.7690   60.3090 C.3   157  CYS157      0.1712
    139  C          7.1750  100.8900   59.0770 C.2   157  CYS157      0.2296
    140  O          6.5660   99.8250   59.1460 O.2   157  CYS157     -0.2864
    141  CB         6.6100  101.1290   61.4810 C.3   157  CYS157      0.0983
    142  SG         7.3200   99.5500   61.9570 S.3   157  CYS157     -0.0798
    143  N          1.0010   85.5360   73.5970 N.3   280  HIS280     -0.1241
    144  CA         0.5700   85.0700   72.2920 C.3   280  HIS280      0.1621
    145  C          1.6310   84.2040   71.6390 C.2   280  HIS280      0.2264
    146  O          2.8170   84.5280   71.6670 O.2   280  HIS280     -0.2867
    147  CB         0.2320   86.2250   71.3530 C.3   280  HIS280      0.0745
    148  CG        -0.2990   85.7590   70.0360 C.ar  280  HIS280      0.0817
    149  ND1        0.2300   86.1650   68.8290 N.ar  280  HIS280     -0.2268
    150  CD2       -1.2660   84.8560   69.7400 C.ar  280  HIS280      0.1154
    151  CE1       -0.3870   85.5300   67.8480 C.ar  280  HIS280      0.1986
    152  NE2       -1.2980   84.7280   68.3740 N.ar  280  HIS280     -0.2212
    153  N          3.7770   85.4490   67.8970 N.3   283  LEU283     -0.1245
    154  CA         4.8750   86.3910   68.1340 C.3   283  LEU283      0.1561
    155  C          5.6860   86.1290   69.4030 C.2   283  LEU283      0.2260
    156  O          5.6700   86.9360   70.3380 O.2   283  LEU283     -0.2867
    157  CB         4.3330   87.8200   68.1560 C.3   283  LEU283      0.0270
    158  CG         4.4730   88.5820   66.8330 C.3   283  LEU283      0.0019
    159  CD1        3.8730   87.8000   65.6940 C.3   283  LEU283      0.0001
    160  CD2        3.8080   89.9240   66.9490 C.3   283  LEU283      0.0001
    161  N          1.7780   86.4520   60.5380 N.3   317  VAL317     -0.1231
    162  CA         0.6220   87.1630   61.0670 C.3   317  VAL317      0.1692
    163  C          0.5420   88.5990   60.5570 C.2   317  VAL317      0.2592
    164  O          0.4040   89.5450   61.3340 O.2   317  VAL317     -0.2718
    165  CB         0.6200   87.1730   62.5980 C.3   317  VAL317      0.0266
    166  CG1        0.5390   85.7420   63.1100 C.3   317  VAL317      0.0020
    167  CG2        1.8560   87.8880   63.1180 C.3   317  VAL317      0.0020
    168  N          0.6450   88.7370   59.2370 N.am  318  TRP318     -0.1976
    169  CA         0.5610   90.0150   58.5250 C.3   318  TRP318      0.1640
    170  C          0.3050   89.6250   57.0780 C.2   318  TRP318      0.2290
    171  O          0.0040   90.4700   56.2330 O.2   318  TRP318     -0.2864
    172  CB         1.8820   90.7930   58.5380 C.3   318  TRP318      0.0576
    173  CG         2.5660   90.9420   59.8420 C.ar  318  TRP318      0.0006
    174  CD1        3.7600   90.4020   60.1920 C.ar  318  TRP318      0.0946
    175  CD2        2.1360   91.7270   60.9550 C.ar  318  TRP318      0.0152
    176  NE1        4.1090   90.8030   61.4510 N.ar  318  TRP318     -0.2442
    177  CE2        3.1280   91.6180   61.9470 C.ar  318  TRP318      0.0810
    178  CE3        1.0100   92.5130   61.2110 C.ar  318  TRP318      0.0012
    179  CZ2        3.0330   92.2650   63.1760 C.ar  318  TRP318      0.0191
    180  CZ3        0.9180   93.1550   62.4280 C.ar  318  TRP318      0.0001
    181  CH2        1.9250   93.0260   63.3980 C.ar  318  TRP318      0.0015
    182  N         -0.6780   88.7130   53.5050 N.3   320  ASP320     -0.1239
    183  CA        -1.7110   89.2810   52.6620 C.3   320  ASP320      0.1674
    184  C         -1.3720   88.9400   51.2180 C.2   320  ASP320      0.2266
    185  O         -0.4250   89.4760   50.6440 O.2   320  ASP320     -0.2867
    186  CB        -1.7500   90.7920   52.8450 C.3   320  ASP320      0.1410
    187  CG        -2.8060   91.4450   52.0030 C.2   320  ASP320      0.3668
    188  OD1       -2.8750   91.1390   50.7920 O.co2 320  ASP320     -0.2456
    189  OD2       -3.5620   92.2690   52.5530 O.co2 320  ASP320     -0.2456
    190  N          0.3570   91.6850   48.7030 N.3   323  GLU323     -0.1245
    191  CA         1.7550   91.9670   49.0340 C.3   323  GLU323      0.1567
    192  C          2.6250   90.7230   48.9230 C.2   323  GLU323      0.2260
    193  O          3.6980   90.7500   48.3300 O.2   323  GLU323     -0.2867
    194  CB         1.8360   92.4980   50.4570 C.3   323  GLU323      0.0388
    195  CG         0.9730   93.6990   50.7140 C.3   323  GLU323      0.1160
    196  CD         0.6520   93.8610   52.1790 C.2   323  GLU323      0.3649
    197  OE1       -0.0970   93.0180   52.7060 O.co2 323  GLU323     -0.2457
    198  OE2        1.1480   94.8200   52.8060 O.co2 323  GLU323     -0.2457
@<TRIPOS>BOND
     1     1     2    1
     2     2     5    1
     3     2     3    1
     4   193   192    2
     5   190   191    1
     6     5     6    1
     7     3     4    2
     8   192   191    1
     9   191   194    1
    10     6     7    1
    11     7     8    1
    12   194   195    1
    13   185   184    2
    14   195   196    1
    15   188   187   ar
    16     8     9    1
    17   184   183    1
    18   187   189   ar
    19   187   186    1
    20   196   197   ar
    21   196   198   ar
    22   183   186    1
    23   183   182    1
    24   106   105    1
    25   122   121    1
    26    98    97    2
    27   105   103   ar
    28   105   104   ar
    29   121   120    1
    30   103   101   ar
    31   120   119    1
    32   104   102   ar
    33    97    96    1
    34    10    11    1
    35   101   100   ar
    36   102   100   ar
    37   119   118    1
    38   171   170    2
    39    21    20    2
    40   118   115    1
    41   107   108    1
    42   136   134   ar
    43   100    99    1
    44    86    85    1
    45    11    12    1
    46    11    14    1
    47    96    99    1
    48    96    95    1
    49   110   109    2
    50   135   134   ar
    51   108   109    1
    52   108   111    1
    53   170   169    1
    54   109   114   am
    55    16    15   ar
    56    20    19    1
    57   134   133    1
    58    18    12   am
    59    18    19    1
    60    12    13    2
    61   114   115    1
    62    90    89    2
    63   115   116    1
    64    19    22    1
    65    15    14    1
    66    15    17   ar
    67    85    83   ar
    68    85    84   ar
    69    83    81   ar
    70   111   112    1
    71   111   113    1
    72   169   172    1
    73   169   168    1
    74   172   173    1
    75    78    77    2
    76   133   130    1
    77    89    88    1
    78    84    82   ar
    79   116   117    2
    80   116   123   am
    81   139   140    2
    82   139   138    1
    83    81    80   ar
    84   168   163   am
    85   123   124    1
    86   132   131    2
    87    88    87    1
    88    88    91    1
    89    94    92    1
    90   129   130    1
    91   129   125   am
    92   130   131    1
    93    77    87   am
    94    77    76    1
    95   131   137   am
    96   173   174   ar
    97   173   175   ar
    98    82    80   ar
    99    80    79    1
   100   137   138    1
   101   174   176   ar
   102   138   141    1
   103    91    92    1
   104   161   162    1
   105   163   162    1
   106   163   164    2
   107   124   125    1
   108   124   127    1
   109    76    79    1
   110    76    75    1
   111   125   126    2
   112    92    93    1
   113   127   128    1
   114   175   178   ar
   115   175   177   ar
   116   162   165    1
   117   178   180   ar
   118   176   177   ar
   119   141   142    1
   120    23    24    1
   121    38    36    1
   122    27    24    1
   123    27    28    1
   124   177   179   ar
   125   180   181   ar
   126   165   166    1
   127   165   167    1
   128    24    25    1
   129    36    37    1
   130    36    33    1
   131    28    29    1
   132    32    25   am
   133    32    33    1
   134    67    66    2
   135   179   181   ar
   136    31    29   am
   137    25    26    2
   138    29    30    2
   139    33    34    1
   140    66    65    1
   141    58    57    2
   142    34    35    2
   143    65    68    1
   144    65    64    1
   145    53    52    1
   146    57    64   am
   147    57    56    1
   148   159   158    1
   149    68    69    1
   150    46    45    1
   151    70    69    1
   152    70    71    1
   153    45    44    1
   154    52    54    1
   155    52    51    1
   156    56    59    1
   157    56    55    1
   158    73    72    1
   159   158   160    1
   160   158   157    1
   161    44    43    1
   162    71    72    2
   163    59    60    1
   164    72    74    1
   165    51    48    1
   166    62    61   ar
   167   151   152   ar
   168   151   149   ar
   169   153   154    1
   170    39    40    1
   171   154   157    1
   172   154   155    1
   173   152   150   ar
   174    42    41    2
   175    43    40    1
   176    61    60    1
   177    61    63   ar
   178   149   148   ar
   179    48    47    1
   180    48    49    1
   181    40    41    1
   182   155   156    2
   183   150   148   ar
   184    49    50    2
   185   148   147    1
   186   147   144    1
   187   145   146    2
   188   145   144    1
   189   144   143    1
