@<TRIPOS>MOLECULE
tmp/2h96A01.pdb
 145 134 0 0 0
SMALL
GASTEIGER

@<TRIPOS>ATOM
      1  N         24.3200  111.7080   51.8680 N.3    26  ILE26      -0.1231
      2  CA        23.8210  110.7510   52.8500 C.3    26  ILE26       0.1692
      3  C         24.3540  109.3810   52.4640 C.2    26  ILE26       0.2592
      4  O         24.5280  108.5040   53.3070 O.2    26  ILE26      -0.2718
      5  CB        22.2810  110.6580   52.8380 C.3    26  ILE26       0.0266
      6  CG1       21.7990  110.4040   51.4060 C.3    26  ILE26       0.0019
      7  CG2       21.6690  111.9200   53.4210 C.3    26  ILE26       0.0020
      8  CD1       20.3730  109.9120   51.2930 C.3    26  ILE26       0.0001
      9  N         24.6050  109.2160   51.1700 N.am   27  GLY27      -0.1957
     10  CA        25.0970  107.9560   50.6550 C.3    27  GLY27       0.1869
     11  C         26.4560  108.0440   49.9920 C.2    27  GLY27       0.2309
     12  O         26.6170  108.6030   48.9060 O.2    27  GLY27      -0.2863
     13  N         25.2070  109.4450   46.9430 N.3    34  VAL34      -0.1245
     14  CA        23.7510  109.4880   46.8630 C.3    34  VAL34       0.1561
     15  C         23.3070  110.5060   47.8960 C.2    34  VAL34       0.2260
     16  O         23.3450  110.2230   49.0870 O.2    34  VAL34      -0.2867
     17  CB        23.1180  108.1290   47.2410 C.3    34  VAL34       0.0252
     18  CG1       21.6120  108.1780   47.0540 C.3    34  VAL34       0.0019
     19  CG2       23.7160  107.0290   46.3970 C.3    34  VAL34       0.0019
     20  N         20.4180  113.4890   49.4220 N.3    36  ALA36      -0.1245
     21  CA        18.9940  113.7700   49.5050 C.3    36  ALA36       0.1562
     22  C         18.7670  115.1260   48.8750 C.2    36  ALA36       0.2260
     23  O         19.6590  115.9710   48.8800 O.2    36  ALA36      -0.2867
     24  CB        18.5510  113.7870   50.9510 C.3    36  ALA36       0.0290
     25  N         10.4260  115.2800   49.2130 N.3    45  ASN45      -0.1240
     26  CA        11.8730  115.1160   49.1330 C.3    45  ASN45       0.1653
     27  C         12.2590  113.8430   48.4050 C.2    45  ASN45       0.2266
     28  O         11.5080  112.8700   48.3700 O.2    45  ASN45      -0.2867
     29  CB        12.4850  115.1180   50.5240 C.3    45  ASN45       0.1155
     30  CG        12.6240  116.5110   51.0770 C.2    45  ASN45       0.2627
     31  OD1       11.8020  117.3750   50.7880 O.2    45  ASN45      -0.2716
     32  ND2       13.6570  116.7420   51.8800 N.am   45  ASN45      -0.0877
     33  N         15.8190  111.2880   46.7220 N.3    47  ALA47      -0.1245
     34  CA        17.2130  110.8870   46.8190 C.3    47  ALA47       0.1562
     35  C         17.7760  110.7570   45.4130 C.2    47  ALA47       0.2260
     36  O         17.1120  110.2390   44.5070 O.2    47  ALA47      -0.2867
     37  CB        17.3280  109.5680   47.5540 C.3    47  ALA47       0.0290
     38  N         21.1670  109.4360   43.1910 N.3    49  LYS49      -0.1245
     39  CA        22.4310  108.7120   43.1460 C.3    49  LYS49       0.1561
     40  C         23.1420  109.0600   41.8530 C.2    49  LYS49       0.2260
     41  O         22.5090  109.1600   40.8040 O.2    49  LYS49      -0.2867
     42  CB        22.2200  107.1940   43.1730 C.3    49  LYS49       0.0271
     43  CG        23.5220  106.3880   43.0340 C.3    49  LYS49       0.0035
     44  CD        23.2740  104.9190   42.6830 C.3    49  LYS49       0.0206
     45  CE        22.5890  104.1520   43.8110 C.3    49  LYS49       0.1093
     46  NZ        22.3710  102.7040   43.4890 N.3    49  LYS49      -0.1314
     47  N         12.2880  100.4290   46.8460 N.3    80  ILE80      -0.1245
     48  CA        12.4620  101.8550   46.5370 C.3    80  ILE80       0.1561
     49  C         12.0330  102.1610   45.1040 C.2    80  ILE80       0.2260
     50  O         12.5570  101.5890   44.1420 O.2    80  ILE80      -0.2867
     51  CB        13.9180  102.3210   46.7140 C.3    80  ILE80       0.0252
     52  CG1       13.9520  103.5550   47.6080 C.3    80  ILE80       0.0019
     53  CG2       14.5230  102.7090   45.3740 C.3    80  ILE80       0.0019
     54  CD1       13.4900  103.2910   49.0050 C.3    80  ILE80       0.0001
     55  N         15.1230  108.5300   43.0850 N.3   102  MET102     -0.1230
     56  CA        14.1070  107.6630   43.6640 C.3   102  MET102      0.1702
     57  C         13.6560  108.1920   45.0010 C.2   102  MET102      0.2592
     58  O         14.3790  108.9320   45.6690 O.2   102  MET102     -0.2718
     59  CB        14.6400  106.2510   43.8970 C.3   102  MET102      0.0401
     60  CG        15.6130  105.7390   42.8650 C.3   102  MET102      0.0596
     61  SD        16.9430  104.9640   43.7630 S.3   102  MET102     -0.1393
     62  CE        17.2720  106.2790   44.8760 C.3   102  MET102      0.0692
     63  N         12.4600  107.7710   45.3880 N.am  103  GLU103     -0.1966
     64  CA        11.8530  108.1520   46.6500 C.3   103  GLU103      0.1733
     65  C         12.8350  107.9440   47.7910 C.2   103  GLU103      0.2616
     66  O         13.7520  107.1420   47.6720 O.2   103  GLU103     -0.2715
     67  CB        10.6160  107.2970   46.8650 C.3   103  GLU103      0.0429
     68  CG        10.7830  105.8910   46.3240 C.3   103  GLU103      0.1163
     69  CD         9.6310  104.9900   46.6970 C.2   103  GLU103      0.3649
     70  OE1        9.4490  104.7290   47.9040 O.co2 103  GLU103     -0.2457
     71  OE2        8.9010  104.5440   45.7880 O.co2 103  GLU103     -0.2457
     72  N         12.6530  108.6560   48.8990 N.am  104  LEU104     -0.1963
     73  CA        13.5730  108.4840   50.0130 C.3   104  LEU104      0.1728
     74  C         12.8640  108.3410   51.3640 C.2   104  LEU104      0.2616
     75  O         12.0240  109.1600   51.7210 O.2   104  LEU104     -0.2715
     76  CB        14.5790  109.6430   50.0380 C.3   104  LEU104      0.0311
     77  CG        14.3940  110.7990   51.0210 C.3   104  LEU104      0.0022
     78  CD1       15.5580  110.8370   51.9940 C.3   104  LEU104      0.0001
     79  CD2       14.3150  112.1090   50.2640 C.3   104  LEU104      0.0001
     80  N         13.2000  107.2840   52.1060 N.am  105  MET105     -0.1963
     81  CA        12.5960  107.0320   53.4100 C.3   105  MET105      0.1736
     82  C         13.3090  107.8790   54.4580 C.2   105  MET105      0.2616
     83  O         13.9780  108.8380   54.1190 O.2   105  MET105     -0.2715
     84  CB        12.7290  105.5630   53.7840 C.3   105  MET105      0.0427
     85  CG        12.5130  104.6060   52.6430 C.3   105  MET105      0.0599
     86  SD        10.8340  104.5400   52.0850 S.3   105  MET105     -0.1393
     87  CE        10.0270  103.8780   53.5220 C.3   105  MET105      0.0692
     88  N         13.1860  107.5090   55.7280 N.am  106  ASP106     -0.1957
     89  CA        13.8130  108.2760   56.7970 C.3   106  ASP106      0.1840
     90  C         15.2010  107.8240   57.2530 C.2   106  ASP106      0.2622
     91  O         16.0320  108.6550   57.6210 O.2   106  ASP106     -0.2715
     92  CB        12.8940  108.3310   58.0250 C.3   106  ASP106      0.1450
     93  CG        11.6500  109.1720   57.7950 C.2   106  ASP106      0.3671
     94  OD1       11.7490  110.2430   57.1650 O.co2 106  ASP106     -0.2456
     95  OD2       10.5690  108.7680   58.2680 O.co2 106  ASP106     -0.2456
     96  N         15.4720  106.5240   57.2470 N.am  107  ALA107     -0.1963
     97  CA        16.7840  106.0800   57.7060 C.3   107  ALA107      0.1728
     98  C         17.2840  104.7330   57.1980 C.2   107  ALA107      0.2616
     99  O         16.7420  104.1390   56.2710 O.2   107  ALA107     -0.2715
    100  CB        16.8160  106.0940   59.2300 C.3   107  ALA107      0.0334
    101  N         18.3470  104.2660   57.8320 N.am  108  ASN108     -0.1972
    102  CA        18.9560  103.0040   57.4760 C.3   108  ASN108      0.1688
    103  C         18.5860  101.9440   58.4890 C.2   108  ASN108      0.2292
    104  O         18.2590  102.2650   59.6280 O.2   108  ASN108     -0.2864
    105  CB        20.4610  103.1600   57.4600 C.3   108  ASN108      0.1181
    106  CG        21.0530  102.6470   56.2040 C.2   108  ASN108      0.2629
    107  OD1       22.2660  102.6760   56.0070 O.2   108  ASN108     -0.2716
    108  ND2       20.1930  102.1670   55.3210 N.am  108  ASN108     -0.0877
    109  N         22.8260   98.4560   55.0210 N.3   149  SER149     -0.1202
    110  CA        23.0760   99.6100   54.1490 C.3   149  SER149      0.2020
    111  C         22.0790   99.7150   53.0000 C.2   149  SER149      0.2618
    112  O         21.8490  100.8060   52.4840 O.2   149  SER149     -0.2717
    113  CB        24.4850   99.5480   53.5410 C.3   149  SER149      0.2103
    114  OG        25.4960   99.3840   54.5230 O.3   149  SER149     -0.2182
    115  N         21.5090   98.5790   52.5930 N.am  150  ASN150     -0.1974
    116  CA        20.5490   98.5290   51.4870 C.3   150  ASN150      0.1688
    117  C         19.1070   98.3210   51.9120 C.2   150  ASN150      0.2292
    118  O         18.3180   97.7280   51.1690 O.2   150  ASN150     -0.2864
    119  CB        20.8960   97.4160   50.4980 C.3   150  ASN150      0.1181
    120  CG        22.0820   97.7500   49.6250 C.2   150  ASN150      0.2629
    121  OD1       22.5100   98.9060   49.5470 O.2   150  ASN150     -0.2716
    122  ND2       22.6130   96.7350   48.9430 N.am  150  ASN150     -0.0877
    123  N         15.9760  100.5780   53.9320 N.3   152  VAL152     -0.1245
    124  CA        15.5420  101.8210   54.5390 C.3   152  VAL152      0.1561
    125  C         14.1750  101.7670   55.2000 C.2   152  VAL152      0.2260
    126  O         13.2580  101.1040   54.7190 O.2   152  VAL152     -0.2867
    127  CB        15.5510  102.9460   53.4940 C.3   152  VAL152      0.0252
    128  CG1       16.9740  103.4220   53.2750 C.3   152  VAL152      0.0019
    129  CG2       14.9570  102.4370   52.1660 C.3   152  VAL152      0.0019
    130  N         16.7550   98.1650   48.6300 N.3   162  LEU162     -0.1231
    131  CA        17.5010   99.1500   47.8790 C.3   162  LEU162      0.1693
    132  C         18.5530   98.5180   46.9650 C.2   162  LEU162      0.2592
    133  O         18.8190   97.3150   47.0320 O.2   162  LEU162     -0.2718
    134  CB        18.1690  100.0870   48.8730 C.3   162  LEU162      0.0284
    135  CG        18.1520  101.5590   48.5730 C.3   162  LEU162      0.0019
    136  CD1       17.4600  102.2950   49.7030 C.3   162  LEU162      0.0001
    137  CD2       19.5770  102.0220   48.3920 C.3   162  LEU162      0.0001
    138  N         19.1320   99.3530   46.1100 N.am  163  ASP163     -0.1974
    139  CA        20.1670   98.9540   45.1670 C.3   163  ASP163      0.1709
    140  C         19.8690   97.6820   44.3650 C.2   163  ASP163      0.2293
    141  O         19.3110   96.7170   44.8770 O.2   163  ASP163     -0.2864
    142  CB        21.5000   98.8160   45.9110 C.3   163  ASP163      0.1436
    143  CG        22.6560   99.4620   45.1590 C.2   163  ASP163      0.3671
    144  OD1       23.0510   98.9210   44.1010 O.co2 163  ASP163     -0.2456
    145  OD2       23.1560  100.5130   45.6230 O.co2 163  ASP163     -0.2456
@<TRIPOS>BOND
     1    41    40    2
     2    40    39    1
     3    44    43    1
     4    44    45    1
     5    60    61    1
     6    60    59    1
     7    43    42    1
     8    55    56    1
     9    39    42    1
    10    39    38    1
    11    46    45    1
    12    56    59    1
    13    56    57    1
    14    61    62    1
    15   144   143   ar
    16    50    49    2
    17   140   141    2
    18   140   139    1
    19    36    35    2
    20    57    63   am
    21    57    58    2
    22    49    48    1
    23   143   145   ar
    24   143   142    1
    25   139   142    1
    26   139   138    1
    27    53    51    1
    28    63    64    1
    29    35    34    1
    30    71    69   ar
    31   138   132   am
    32    68    69    1
    33    68    67    1
    34    19    17    1
    35    48    51    1
    36    48    47    1
    37    64    67    1
    38    64    65    1
    39    69    70   ar
    40    51    52    1
    41    33    34    1
    42    34    37    1
    43    14    13    1
    44    14    17    1
    45    14    15    1
    46   132   133    2
    47   132   131    1
    48    18    17    1
    49    52    54    1
    50    66    65    2
    51    65    72   am
    52   131   130    1
    53   131   134    1
    54    15    16    2
    55    28    27    2
    56   137   135    1
    57    27    26    1
    58   135   134    1
    59   135   136    1
    60    22    23    2
    61    22    21    1
    62    72    73    1
    63    12    11    2
    64   122   120   am
    65    26    25    1
    66    26    29    1
    67    20    21    1
    68    21    24    1
    69   121   120    2
    70   120   119    1
    71    11    10    1
    72    73    76    1
    73    73    74    1
    74    76    77    1
    75    79    77    1
    76   119   116    1
    77    29    30    1
    78    10     9    1
    79    31    30    2
    80    77    78    1
    81    30    32   am
    82   118   117    2
    83     9     3   am
    84     8     6    1
    85    74    75    2
    86    74    80   am
    87     6     5    1
    88   116   117    1
    89   116   115    1
    90     1     2    1
    91    86    85    1
    92    86    87    1
    93    80    81    1
    94   129   127    1
    95     3     2    1
    96     3     4    2
    97   112   111    2
    98   115   111   am
    99    85    84    1
   100     5     2    1
   101     5     7    1
   102   111   110    1
   103   128   127    1
   104    81    84    1
   105    81    82    1
   106   127   124    1
   107   113   110    1
   108   113   114    1
   109   123   124    1
   110    83    82    2
   111   110   109    1
   112    82    88   am
   113   124   125    1
   114   126   125    2
   115   108   106   am
   116    88    89    1
   117   107   106    2
   118   106   105    1
   119    99    98    2
   120    89    90    1
   121    89    92    1
   122    94    93   ar
   123    98    97    1
   124    98   101   am
   125    96    90   am
   126    96    97    1
   127    90    91    2
   128   105   102    1
   129   102   101    1
   130   102   103    1
   131    97   100    1
   132    93    92    1
   133    93    95   ar
   134   103   104    2
