@<TRIPOS>MOLECULE
tmp/2h9eA00.pdb
 220 216 0 0 0
SMALL
GASTEIGER

@<TRIPOS>ATOM
      1  N         28.3480   -6.6950   56.7080 N.3    42  HIS42      -0.1241
      2  CA        29.2220   -7.8450   56.8380 C.3    42  HIS42       0.1621
      3  C         28.5200   -9.0640   57.2670 C.2    42  HIS42       0.2264
      4  O         29.0130  -10.1880   57.0000 O.2    42  HIS42      -0.2867
      5  CB        30.4560   -7.5750   57.7100 C.3    42  HIS42       0.0745
      6  CG        30.1910   -7.5970   59.1600 C.ar   42  HIS42       0.0817
      7  ND1       30.0410   -6.4400   59.8940 N.ar   42  HIS42      -0.2268
      8  CD2       30.0720   -8.6240   60.0380 C.ar   42  HIS42       0.1154
      9  CE1       29.8620   -6.7520   61.1620 C.ar   42  HIS42       0.1986
     10  NE2       29.8920   -8.0690   61.2790 N.ar   42  HIS42      -0.2212
     11  N         27.9450  -13.9590   56.4460 N.3    46  GLN46      -0.1245
     12  CA        28.2240  -14.9040   57.5340 C.3    46  GLN46       0.1566
     13  C         27.1540  -15.9590   57.6130 C.2    46  GLN46       0.2260
     14  O         27.0300  -16.7340   58.5920 O.2    46  GLN46      -0.2867
     15  CB        28.5350  -14.1500   58.8580 C.3    46  GLN46       0.0367
     16  CG        29.3380  -12.8860   58.5010 C.3    46  GLN46       0.0905
     17  CD        30.0590  -12.2250   59.6410 C.2    46  GLN46       0.2608
     18  OE1       31.1160  -11.6030   59.4380 O.2    46  GLN46      -0.2717
     19  NE2       29.4910  -12.3260   60.8480 N.am   46  GLN46      -0.0878
     20  N         35.3910   -5.3730   53.2470 N.3    82  LYS82      -0.1231
     21  CA        35.7860   -6.2190   54.3720 C.3    82  LYS82       0.1693
     22  C         37.2140   -5.9150   54.8650 C.2    82  LYS82       0.2592
     23  O         37.6360   -6.3640   55.9140 O.2    82  LYS82      -0.2718
     24  CB        35.5900   -7.6910   54.0390 C.3    82  LYS82       0.0285
     25  CG        35.1390   -8.5320   55.2360 C.3    82  LYS82       0.0035
     26  CD        33.9440   -9.4180   54.8720 C.3    82  LYS82       0.0206
     27  CE        33.3380  -10.1110   56.0890 C.3    82  LYS82       0.1093
     28  NZ        34.1800  -11.2840   56.4760 N.3    82  LYS82      -0.1314
     29  N         37.9020   -5.0590   54.1280 N.am   83  GLU83      -0.1966
     30  CA        39.2700   -4.6840   54.3840 C.3    83  GLU83       0.1733
     31  C         39.2950   -3.6400   55.4990 C.2    83  GLU83       0.2617
     32  O         40.0730   -3.7750   56.4390 O.2    83  GLU83      -0.2715
     33  CB        39.8600   -4.0710   53.1050 C.3    83  GLU83       0.0429
     34  CG        40.4500   -4.9880   51.9400 C.3    83  GLU83       0.1163
     35  CD        39.9280   -6.4220   51.8100 C.2    83  GLU83       0.3649
     36  OE1       39.2030   -6.7330   50.8220 O.co2  83  GLU83      -0.2457
     37  OE2       40.2980   -7.2630   52.6580 O.co2  83  GLU83      -0.2457
     38  N         38.4520   -2.5960   55.3940 N.am   84  THR84      -0.1937
     39  CA        38.3440   -1.5780   56.4690 C.3    84  THR84       0.2028
     40  C         37.0560   -1.5990   57.3600 C.2    84  THR84       0.2642
     41  O         37.0000   -0.9380   58.4490 O.2    84  THR84      -0.2714
     42  CB        38.4990   -0.1910   55.9380 C.3    84  THR84       0.1808
     43  OG1       37.3930    0.1080   55.0730 O.3    84  THR84      -0.2208
     44  CG2       39.8630   -0.0380   55.1750 C.3    84  THR84       0.0379
     45  N         36.0860   -2.4020   56.9220 N.am   85  TYR85      -0.1973
     46  CA        34.7120   -2.4050   57.4260 C.3    85  TYR85       0.1639
     47  C         34.0990   -1.0280   57.3020 C.2    85  TYR85       0.2290
     48  O         33.1740   -0.7100   58.0260 O.2    85  TYR85      -0.2864
     49  CB        34.5860   -2.9410   58.8500 C.3    85  TYR85       0.0560
     50  CG        34.4950   -4.4400   58.9870 C.ar   85  TYR85      -0.0198
     51  CD1       35.3680   -5.2940   58.2960 C.ar   85  TYR85      -0.0009
     52  CD2       33.5460   -5.0200   59.8280 C.ar   85  TYR85      -0.0009
     53  CE1       35.2720   -6.7110   58.4160 C.ar   85  TYR85       0.0417
     54  CE2       33.4520   -6.3810   59.9790 C.ar   85  TYR85       0.0417
     55  CZ        34.3210   -7.2520   59.2640 C.ar   85  TYR85       0.1957
     56  OH        34.2400   -8.6620   59.4420 O.3    85  TYR85      -0.2866
     57  N         27.9870  -13.7350   71.8200 N.3   132  ARG132     -0.1245
     58  CA        28.7820  -14.3780   72.8970 C.3   132  ARG132      0.1563
     59  C         28.8940  -13.5550   74.1340 C.2   132  ARG132      0.2260
     60  O         29.0410  -12.3160   74.0180 O.2   132  ARG132     -0.2867
     61  CB        30.2070  -14.5920   72.4230 C.3   132  ARG132      0.0307
     62  CG        30.2570  -15.6000   71.3600 C.3   132  ARG132      0.0489
     63  CD        31.6740  -15.6560   70.8700 C.3   132  ARG132      0.2205
     64  NE        31.7690  -16.6200   69.7860 N.pl3 132  ARG132     -0.0865
     65  CZ        32.8950  -16.8840   69.1400 C.cat 132  ARG132      0.5346
     66  NH1       33.9980  -16.2450   69.4730 N.pl3 132  ARG132      0.1354
     67  NH2       32.9060  -17.7590   68.1580 N.pl3 132  ARG132      0.1354
     68  N         34.6360  -13.4680   74.8430 N.3   135  GLU135     -0.1245
     69  CA        35.3290  -13.5850   73.5670 C.3   135  GLU135      0.1567
     70  C         35.4120  -15.0140   73.0450 C.2   135  GLU135      0.2260
     71  O         35.2390  -15.2460   71.8630 O.2   135  GLU135     -0.2867
     72  CB        36.7170  -12.9270   73.6360 C.3   135  GLU135      0.0388
     73  CG        37.3910  -12.7890   72.2840 C.3   135  GLU135      0.1160
     74  CD        38.6910  -12.0190   72.3590 C.2   135  GLU135      0.3649
     75  OE1       38.7540  -10.9950   73.0750 O.co2 135  GLU135     -0.2457
     76  OE2       39.6520  -12.4300   71.6740 O.co2 135  GLU135     -0.2457
     77  N         44.0670   -0.1530   66.2760 N.3   161  SER161     -0.1202
     78  CA        45.0560   -0.5360   65.3140 C.3   161  SER161      0.2020
     79  C         44.5470   -0.2940   63.9360 C.2   161  SER161      0.2619
     80  O         45.3670   -0.0870   63.0510 O.2   161  SER161     -0.2717
     81  CB        45.4050   -2.0020   65.4560 C.3   161  SER161      0.2103
     82  OG        45.4220   -2.3580   66.8240 O.3   161  SER161     -0.2182
     83  N         43.2270   -0.2860   63.7280 N.am  162  PHE162     -0.1961
     84  CA        42.7050   -0.1860   62.3600 C.3   162  PHE162      0.1771
     85  C         42.1080    1.1650   62.1870 C.2   162  PHE162      0.2619
     86  O         41.7980    1.8510   63.1480 O.2   162  PHE162     -0.2715
     87  CB        41.6190   -1.2850   62.0780 C.3   162  PHE162      0.0574
     88  CG        42.0700   -2.7130   62.3120 C.ar  162  PHE162     -0.0200
     89  CD1       42.7100   -3.4290   61.3310 C.ar  162  PHE162     -0.0042
     90  CD2       41.8110   -3.3440   63.4920 C.ar  162  PHE162     -0.0042
     91  CE1       43.0890   -4.8050   61.5570 C.ar  162  PHE162     -0.0003
     92  CE2       42.1710   -4.6520   63.7230 C.ar  162  PHE162     -0.0003
     93  CZ        42.8010   -5.3830   62.7720 C.ar  162  PHE162     -0.0000
     94  N         41.8860    1.5520   60.9560 N.am  163  ILE163     -0.1977
     95  CA        41.3870    2.8640   60.6940 C.3   163  ILE163      0.1596
     96  C         39.9710    3.0250   61.2630 C.2   163  ILE163      0.2287
     97  O         39.1750    2.0680   61.2570 O.2   163  ILE163     -0.2864
     98  CB        41.4120    3.1670   59.1680 C.3   163  ILE163      0.0276
     99  CG1       41.1260    4.6450   58.9180 C.3   163  ILE163      0.0022
    100  CG2       40.4820    2.2080   58.3730 C.3   163  ILE163      0.0022
    101  CD1       41.3650    5.0930   57.4440 C.3   163  ILE163      0.0001
    102  N         31.4840   -5.3010   76.6880 N.3   179  ASP179     -0.1225
    103  CA        31.3060   -4.7160   75.3870 C.3   179  ASP179      0.1805
    104  C         30.5040   -5.6980   74.5330 C.2   179  ASP179      0.2598
    105  O         30.1420   -6.7490   74.9920 O.2   179  ASP179     -0.2718
    106  CB        32.6610   -4.4840   74.7530 C.3   179  ASP179      0.1424
    107  CG        32.6830   -3.2650   73.7880 C.2   179  ASP179      0.3668
    108  OD1       31.8480   -3.1820   72.8560 O.co2 179  ASP179     -0.2456
    109  OD2       33.5950   -2.4100   73.9460 O.co2 179  ASP179     -0.2456
    110  N         30.2750   -5.3570   73.2690 N.am  180  ALA180     -0.1966
    111  CA        29.6020   -6.2510   72.3620 C.3   180  ALA180      0.1728
    112  C         30.5430   -7.3910   72.0280 C.2   180  ALA180      0.2616
    113  O         31.7500   -7.3570   72.3300 O.2   180  ALA180     -0.2715
    114  CB        29.2230   -5.4860   71.0690 C.3   180  ALA180      0.0334
    115  N         30.0160   -8.4190   71.3660 N.am  181  CYS181     -0.1954
    116  CA        30.8930   -9.4790   70.9570 C.3   181  CYS181      0.1843
    117  C         30.3080  -10.1700   69.7330 C.2   181  CYS181      0.2625
    118  O         29.3240   -9.6680   69.1200 O.2   181  CYS181     -0.2714
    119  CB        31.1330  -10.4850   72.0850 C.3   181  CYS181      0.0997
    120  SG        32.6410  -11.5470   71.6080 S.3   181  CYS181     -0.0797
    121  N         30.9220  -11.3040   69.3750 N.am  182  GLN182     -0.1977
    122  CA        30.5450  -12.0100   68.1040 C.3   182  GLN182      0.1601
    123  C         29.1490  -12.5570   68.3040 C.2   182  GLN182      0.2287
    124  O         28.8250  -13.0480   69.4300 O.2   182  GLN182     -0.2864
    125  CB        31.5330  -13.1470   67.7790 C.3   182  GLN182      0.0394
    126  CG        31.0540  -14.2310   66.8560 C.3   182  GLN182      0.0908
    127  CD        30.6520  -13.7210   65.5060 C.2   182  GLN182      0.2608
    128  OE1       31.2890  -12.8220   64.9860 O.2   182  GLN182     -0.2717
    129  NE2       29.5610  -14.2900   64.9140 N.am  182  GLN182     -0.0878
    130  N         26.8800   -8.4750   66.1460 N.3   185  SER185     -0.1217
    131  CA        27.0690   -7.5890   64.9810 C.3   185  SER185      0.1889
    132  C         25.7730   -7.4080   64.2340 C.2   185  SER185      0.2288
    133  O         24.9700   -8.3260   64.2080 O.2   185  SER185     -0.2866
    134  CB        28.1030   -8.1250   63.9800 C.3   185  SER185      0.2089
    135  OG        29.1940   -8.6380   64.7040 O.3   185  SER185     -0.2183
    136  N         26.1650   -2.2760   65.5490 N.3   203  VAL203     -0.1231
    137  CA        27.2440   -3.1270   65.9680 C.3   203  VAL203      0.1692
    138  C         28.0580   -3.6500   64.7400 C.2   203  VAL203      0.2593
    139  O         27.5170   -4.4240   63.8690 O.2   203  VAL203     -0.2718
    140  CB        26.8100   -4.3360   66.8470 C.3   203  VAL203      0.0266
    141  CG1       28.0980   -5.0830   67.3980 C.3   203  VAL203      0.0020
    142  CG2       25.9780   -3.9140   68.0780 C.3   203  VAL203      0.0020
    143  N         29.3520   -3.2710   64.7310 N.am  204  SER204     -0.1938
    144  CA        30.2530   -3.4510   63.5830 C.3   204  SER204      0.2055
    145  C         31.4630   -4.3500   63.8490 C.2   204  SER204      0.2643
    146  O         31.4660   -5.5070   63.4400 O.2   204  SER204     -0.2714
    147  CB        30.7540   -2.1760   63.0600 C.3   204  SER204      0.2130
    148  OG        31.1020   -2.4330   61.7110 O.3   204  SER204     -0.2179
    149  N         32.4580   -3.8400   64.5760 N.am  205  TRP205     -0.1959
    150  CA        33.6010   -4.6560   64.9000 C.3   205  TRP205      0.1771
    151  C         34.2930   -4.2150   66.1670 C.2   205  TRP205      0.2620
    152  O         34.0030   -3.1070   66.7090 O.2   205  TRP205     -0.2715
    153  CB        34.5920   -4.6440   63.7470 C.3   205  TRP205      0.0590
    154  CG        35.0770   -3.2520   63.3250 C.ar  205  TRP205      0.0006
    155  CD1       34.5000   -2.4000   62.4430 C.ar  205  TRP205      0.0946
    156  CD2       36.3070   -2.6280   63.7400 C.ar  205  TRP205      0.0152
    157  NE1       35.2600   -1.2310   62.3350 N.ar  205  TRP205     -0.2442
    158  CE2       36.3830   -1.3690   63.1030 C.ar  205  TRP205      0.0810
    159  CE3       37.3570   -3.0240   64.5980 C.ar  205  TRP205      0.0012
    160  CZ2       37.5080   -0.5200   63.2420 C.ar  205  TRP205      0.0191
    161  CZ3       38.4340   -2.1530   64.7960 C.ar  205  TRP205      0.0001
    162  CH2       38.4820   -0.9150   64.1430 C.ar  205  TRP205      0.0015
    163  N         35.1330   -5.1160   66.6660 N.am  206  GLY206     -0.1940
    164  CA        36.0690   -4.8300   67.7860 C.3   206  GLY206      0.2014
    165  C         37.3340   -5.6860   67.6330 C.2   206  GLY206      0.2639
    166  O         37.3050   -6.7270   66.9340 O.2   206  GLY206     -0.2714
    167  N         38.4370   -5.2290   68.2270 N.am  207  GLU207     -0.1963
    168  CA        39.6840   -6.0330   68.3440 C.3   207  GLU207      0.1733
    169  C         39.5510   -6.9230   69.5820 C.2   207  GLU207      0.2617
    170  O         39.9360   -6.5110   70.6830 O.2   207  GLU207     -0.2715
    171  CB        40.8900   -5.0790   68.5190 C.3   207  GLU207      0.0429
    172  CG        41.1260   -4.2190   67.3380 C.3   207  GLU207      0.1163
    173  CD        42.3790   -3.3300   67.4480 C.2   207  GLU207      0.3649
    174  OE1       43.4690   -3.8600   67.7990 O.co2 207  GLU207     -0.2457
    175  OE2       42.2410   -2.1230   67.1020 O.co2 207  GLU207     -0.2457
    176  N         38.9880   -8.1260   69.4120 N.am  208  GLY208     -0.1940
    177  CA        38.5150   -8.9290   70.5230 C.3   208  GLY208      0.2014
    178  C         37.2230   -8.4070   71.1290 C.2   208  GLY208      0.2639
    179  O         36.5850   -7.4790   70.5870 O.2   208  GLY208     -0.2714
    180  N         36.8520   -8.9430   72.2840 N.am  209  CYS209     -0.1967
    181  CA        35.6300   -8.5520   72.8650 C.3   209  CYS209      0.1712
    182  C         35.8840   -8.1000   74.2470 C.2   209  CYS209      0.2296
    183  O         36.2320   -8.9150   75.0770 O.2   209  CYS209     -0.2864
    184  CB        34.6160   -9.7210   72.9050 C.3   209  CYS209      0.0983
    185  SG        34.1740  -10.1970   71.2830 S.3   209  CYS209     -0.0798
    186  N         38.2400   -6.3080   75.3620 N.3   211  ARG211     -0.1245
    187  CA        39.6740   -6.2460   75.7740 C.3   211  ARG211      0.1563
    188  C         40.0020   -4.9180   76.4780 C.2   211  ARG211      0.2260
    189  O         39.3840   -3.8890   76.2030 O.2   211  ARG211     -0.2867
    190  CB        40.6060   -6.5250   74.6030 C.3   211  ARG211      0.0307
    191  CG        40.8260   -7.9970   74.4140 C.3   211  ARG211      0.0489
    192  CD        41.5510   -8.2690   73.0950 C.3   211  ARG211      0.2205
    193  NE        41.3820   -9.6400   72.6310 N.pl3 211  ARG211     -0.0865
    194  CZ        42.2430  -10.2380   71.8220 C.cat 211  ARG211      0.5346
    195  NH1       43.3290   -9.5630   71.4570 N.pl3 211  ARG211      0.1354
    196  NH2       42.0470  -11.4960   71.3880 N.pl3 211  ARG211      0.1354
    197  N         34.1840   -1.0670   71.3140 N.3   216  GLY216     -0.1210
    198  CA        33.4140   -1.5570   70.1870 C.3   216  GLY216      0.1956
    199  C         33.2700   -0.4710   69.2530 C.2   216  GLY216      0.2612
    200  O         33.2070    0.7130   69.6530 O.2   216  GLY216     -0.2717
    201  N         33.3170   -0.8310   67.9830 N.am  217  ILE217     -0.1965
    202  CA        33.1480    0.0790   66.9210 C.3   217  ILE217      0.1727
    203  C         31.7580   -0.1930   66.2780 C.2   217  ILE217      0.2616
    204  O         31.2920   -1.3400   66.1710 O.2   217  ILE217     -0.2715
    205  CB        34.2780   -0.0650   65.9050 C.3   217  ILE217      0.0290
    206  CG1       35.7090   -0.1790   66.6000 C.3   217  ILE217      0.0022
    207  CG2       34.3370    1.1180   64.9670 C.3   217  ILE217      0.0023
    208  CD1       36.2320    1.1720   67.3040 C.3   217  ILE217      0.0001
    209  N         31.0990    0.9020   65.8770 N.am  218  TYR218     -0.1974
    210  CA        29.7430    0.8980   65.3650 C.3   218  TYR218      0.1639
    211  C         29.7410    1.7340   64.1380 C.2   218  TYR218      0.2290
    212  O         30.4620    2.6900   64.0780 O.2   218  TYR218     -0.2864
    213  CB        28.8390    1.6340   66.3860 C.3   218  TYR218      0.0560
    214  CG        28.7700    0.9260   67.7000 C.ar  218  TYR218     -0.0198
    215  CD1       27.6680    0.1220   68.0250 C.ar  218  TYR218     -0.0009
    216  CD2       29.7930    1.0780   68.6320 C.ar  218  TYR218     -0.0009
    217  CE1       27.6060   -0.5390   69.2520 C.ar  218  TYR218      0.0417
    218  CE2       29.7600    0.4520   69.8760 C.ar  218  TYR218      0.0417
    219  CZ        28.6340   -0.3670   70.1690 C.ar  218  TYR218      0.1957
    220  OH        28.5980   -1.0020   71.3530 O.3   218  TYR218     -0.2866
@<TRIPOS>BOND
     1    36    35   ar
     2    35    34    1
     3    35    37   ar
     4    34    33    1
     5    33    30    1
     6    20    21    1
     7    24    21    1
     8    24    25    1
     9    29    30    1
    10    29    22   am
    11    21    22    1
    12    30    31    1
    13    22    23    2
    14    26    25    1
    15    26    27    1
    16    43    42    1
    17    44    42    1
    18    38    31   am
    19    38    39    1
    20    31    32    2
    21    42    39    1
    22    27    28    1
    23    11    12    1
    24    39    40    1
    25     1     2    1
    26     2     3    1
    27     2     5    1
    28    45    40   am
    29    45    46    1
    30     4     3    2
    31    47    46    1
    32    47    48    2
    33    40    41    2
    34    46    49    1
    35   101    99    1
    36    12    13    1
    37    12    15    1
    38    13    14    2
    39     5     6    1
    40    51    53   ar
    41    51    50   ar
    42   100    98    1
    43    53    55   ar
    44    16    15    1
    45    16    17    1
    46    49    50    1
    47    99    98    1
    48    50    52   ar
    49     6     7   ar
    50     6     8   ar
    51    98    95    1
    52    55    56    1
    53    55    54   ar
    54    18    17    2
    55    17    19   am
    56    52    54   ar
    57     7     9   ar
    58     8    10   ar
    59    95    94    1
    60    95    96    1
    61    94    85   am
    62     9    10   ar
    63    97    96    2
    64    89    91   ar
    65    89    88   ar
    66    91    93   ar
    67   148   147    1
    68    87    88    1
    69    87    84    1
    70    85    84    1
    71    85    86    2
    72    88    90   ar
    73   157   155   ar
    74   157   158   ar
    75    84    83    1
    76   155   154   ar
    77    93    92   ar
    78    80    79    2
    79   147   144    1
    80   158   160   ar
    81   158   156   ar
    82   160   162   ar
    83   154   156   ar
    84   154   153    1
    85   146   145    2
    86    90    92   ar
    87   144   145    1
    88   144   143    1
    89    83    79   am
    90   156   159   ar
    91   153   150    1
    92   145   149   am
    93   139   138    2
    94    79    78    1
    95   134   135    1
    96   134   131    1
    97   212   211    2
    98   211   210    1
    99   162   161   ar
   100   133   132    2
   101   132   131    1
   102   149   150    1
   103   159   161   ar
   104   143   138   am
   105   138   137    1
   106   150   151    1
   107   129   127   am
   108   207   205    1
   109   131   130    1
   110   128   127    2
   111    78    81    1
   112    78    77    1
   113   210   209    1
   114   210   213    1
   115    81    82    1
   116   127   126    1
   117   136   137    1
   118   209   203   am
   119   205   206    1
   120   205   202    1
   121   137   140    1
   122   151   163   am
   123   151   152    2
   124   204   203    2
   125   203   202    1
   126   213   214    1
   127   206   208    1
   128   163   164    1
   129   140   141    1
   130   140   142    1
   131   126   125    1
   132   202   201    1
   133   166   165    2
   134   175   173   ar
   135   172   173    1
   136   172   171    1
   137   173   174   ar
   138   165   164    1
   139   165   167   am
   140   214   215   ar
   141   214   216   ar
   142   125   122    1
   143   201   199   am
   144   215   217   ar
   145   122   123    1
   146   122   121    1
   147    67    65    1
   148   167   168    1
   149   123   124    2
   150   168   171    1
   151   168   169    1
   152   216   218   ar
   153   118   117    2
   154    65    66    1
   155    65    64    2
   156   217   219   ar
   157   199   200    2
   158   199   198    1
   159   121   117   am
   160   176   169   am
   161   176   177    1
   162   169   170    2
   163   117   116    1
   164    64    63    1
   165   218   219   ar
   166   219   220    1
   167   198   197    1
   168   177   178    1
   169   179   178    2
   170    63    62    1
   171   116   115    1
   172   116   119    1
   173   114   111    1
   174   178   180   am
   175   185   120    1
   176   185   184    1
   177    62    61    1
   178   115   112   am
   179   196   194    1
   180   195   194    1
   181   120   119    1
   182    76    74   ar
   183    57    58    1
   184   194   193    2
   185    71    70    2
   186   112   113    2
   187   112   111    1
   188    73    74    1
   189    73    72    1
   190   180   181    1
   191    74    75   ar
   192   111   110    1
   193    61    58    1
   194   193   192    1
   195   108   107   ar
   196   181   184    1
   197   181   182    1
   198    58    59    1
   199    70    69    1
   200   192   191    1
   201   110   104   am
   202    69    72    1
   203    69    68    1
   204   107   109   ar
   205   107   106    1
   206    60    59    2
   207   182   183    2
   208   191   190    1
   209   104   105    2
   210   104   103    1
   211   190   187    1
   212   106   103    1
   213   186   187    1
   214   103   102    1
   215   187   188    1
   216   189   188    2
