@<TRIPOS>MOLECULE
tmp/2h9tB01.pdb
 139 138 0 0 0
SMALL
GASTEIGER

@<TRIPOS>ATOM
      1  N         -2.8020    7.7570    8.0130 N.3    85  TYR85      -0.1241
      2  CA        -1.4990    7.1890    7.7850 C.3    85  TYR85       0.1605
      3  C         -0.8060    7.1160    9.0940 C.2    85  TYR85       0.2264
      4  O         -0.5850    8.1190    9.7500 O.2    85  TYR85      -0.2867
      5  CB        -0.6900    8.0670    6.8980 C.3    85  TYR85       0.0534
      6  CG        -1.2430    8.3690    5.5410 C.ar   85  TYR85      -0.0201
      7  CD1       -0.6250    7.8530    4.4020 C.ar   85  TYR85      -0.0009
      8  CD2       -2.3000    9.2460    5.3720 C.ar   85  TYR85      -0.0009
      9  CE1       -1.0500    8.1650    3.1490 C.ar   85  TYR85       0.0417
     10  CE2       -2.7450    9.5770    4.0990 C.ar   85  TYR85       0.0417
     11  CZ        -2.1030    9.0320    3.0010 C.ar   85  TYR85       0.1957
     12  OH        -2.5070    9.3650    1.7350 O.3    85  TYR85      -0.2866
     13  N          2.7450    5.8610   10.9220 N.3    87  HIS87      -0.1227
     14  CA         4.1280    5.5680   10.6100 C.3    87  HIS87       0.1737
     15  C          4.2670    4.0630   10.5050 C.2    87  HIS87       0.2438
     16  O          3.6150    3.3110   11.2520 O.2    87  HIS87      -0.2733
     17  CB         5.0740    6.0700   11.6700 C.3    87  HIS87       0.0758
     18  CG         6.5050    6.0220   11.2380 C.ar   87  HIS87       0.0818
     19  ND1        7.2230    4.8500   11.1800 N.ar   87  HIS87      -0.2268
     20  CD2        7.3340    6.9900   10.7930 C.ar   87  HIS87       0.1154
     21  CE1        8.4330    5.0940   10.7150 C.ar   87  HIS87       0.1986
     22  NE2        8.5260    6.3870   10.4660 N.ar   87  HIS87      -0.2212
     23  N          5.0370    3.5990    9.5130 N.am   88  PRO88      -0.2718
     24  CA         5.1400    2.1350    9.3170 C.3    88  PRO88       0.1535
     25  C          5.8590    1.3950   10.4490 C.2    88  PRO88       0.2598
     26  O          5.6670    0.1980   10.6200 O.2    88  PRO88      -0.2715
     27  CB         5.8620    1.9980    7.9700 C.3    88  PRO88       0.0310
     28  CG         6.6070    3.2910    7.8040 C.3    88  PRO88       0.0237
     29  CD         5.7550    4.3750    8.4820 C.3    88  PRO88       0.0939
     30  N          6.6400    2.1240   11.2400 N.am   89  ARG89      -0.1978
     31  CA         7.4030    1.5450   12.3370 C.3    89  ARG89       0.1597
     32  C          6.9330    1.9750   13.7370 C.2    89  ARG89       0.2287
     33  O          7.6530    1.8770   14.7500 O.2    89  ARG89      -0.2864
     34  CB         8.9000    1.7610   12.1050 C.3    89  ARG89       0.0334
     35  CG         9.4770    0.6820   11.1660 C.3    89  ARG89       0.0492
     36  CD        10.8950    0.9960   10.6620 C.3    89  ARG89       0.2205
     37  NE        11.9650    0.8030   11.6430 N.pl3  89  ARG89      -0.0865
     38  CZ        12.2280   -0.3440   12.2780 C.cat  89  ARG89       0.5346
     39  NH1       11.5070   -1.4260   12.0420 N.pl3  89  ARG89       0.1354
     40  NH2       13.2260   -0.4030   13.1580 N.pl3  89  ARG89       0.1354
     41  N          7.6160    6.1380   17.6290 N.3    98  ARG98      -0.1245
     42  CA         7.0830    6.6370   16.3720 C.3    98  ARG98       0.1563
     43  C          5.5870    6.7040   16.4670 C.2    98  ARG98       0.2260
     44  O          4.8760    6.1600   15.6050 O.2    98  ARG98      -0.2867
     45  CB         7.5070    5.7440   15.1980 C.3    98  ARG98       0.0307
     46  CG         8.9670    5.7990   14.9350 C.3    98  ARG98       0.0489
     47  CD         9.2840    5.0270   13.7010 C.3    98  ARG98       0.2205
     48  NE        10.6990    4.6510   13.5760 N.pl3  98  ARG98      -0.0865
     49  CZ        11.2930    3.6300   14.2110 C.cat  98  ARG98       0.5346
     50  NH1       10.6110    2.8600   15.0670 N.pl3  98  ARG98       0.1354
     51  NH2       12.5850    3.3810   13.9830 N.pl3  98  ARG98       0.1354
     52  N         11.0150   12.3050   12.5810 N.3   237  LEU237     -0.1245
     53  CA        10.1540   11.5260   11.7250 C.3   237  LEU237      0.1561
     54  C          9.7110   12.2680   10.4910 C.2   237  LEU237      0.2260
     55  O          8.8970   11.7840    9.7820 O.2   237  LEU237     -0.2867
     56  CB         8.9800   10.9420   12.5210 C.3   237  LEU237      0.0270
     57  CG         9.4170   10.1120   13.7640 C.3   237  LEU237      0.0019
     58  CD1        8.2040    9.5820   14.5360 C.3   237  LEU237      0.0001
     59  CD2       10.3900    8.9670   13.4410 C.3   237  LEU237      0.0001
     60  N         10.9350   12.5840    7.5230 N.3   239  LYS239     -0.1231
     61  CA        11.0320   11.8450    6.2440 C.3   239  LYS239      0.1693
     62  C          9.6910   11.1920    5.8580 C.2   239  LYS239      0.2592
     63  O          9.1640   11.3740    4.7250 O.2   239  LYS239     -0.2718
     64  CB        12.1350   10.7970    6.3010 C.3   239  LYS239      0.0285
     65  CG        13.1920   11.0050    5.2490 C.3   239  LYS239      0.0035
     66  CD        14.3360    9.9800    5.3460 C.3   239  LYS239      0.0206
     67  CE        13.9470    8.5790    4.7690 C.3   239  LYS239      0.1093
     68  NZ        13.3970    7.6850    5.8280 N.3   239  LYS239     -0.1314
     69  N          9.1360   10.4290    6.7890 N.am  240  TRP240     -0.1976
     70  CA         7.8310    9.8320    6.5880 C.3   240  TRP240      0.1640
     71  C          6.7620   10.9240    6.3320 C.2   240  TRP240      0.2290
     72  O          5.9890   10.8010    5.3900 O.2   240  TRP240     -0.2864
     73  CB         7.4610    8.9730    7.7930 C.3   240  TRP240      0.0576
     74  CG         6.0840    8.5180    7.7750 C.ar  240  TRP240      0.0006
     75  CD1        5.5630    7.5270    6.9960 C.ar  240  TRP240      0.0946
     76  CD2        5.0060    9.0220    8.5550 C.ar  240  TRP240      0.0152
     77  NE1        4.2300    7.3710    7.2630 N.ar  240  TRP240     -0.2442
     78  CE2        3.8580    8.2920    8.2000 C.ar  240  TRP240      0.0810
     79  CE3        4.8880   10.0400    9.4940 C.ar  240  TRP240      0.0012
     80  CZ2        2.6270    8.5280    8.7670 C.ar  240  TRP240      0.0191
     81  CZ3        3.6430   10.2710   10.0750 C.ar  240  TRP240      0.0001
     82  CH2        2.5460    9.5300    9.7130 C.ar  240  TRP240      0.0015
     83  N          7.0440   12.2400    2.8340 N.3   243  LYS243     -0.1231
     84  CA         6.6320   11.2220    1.8850 C.3   243  LYS243      0.1693
     85  C          5.1370   11.1120    1.7640 C.2   243  LYS243      0.2591
     86  O          4.6240   11.1300    0.6590 O.2   243  LYS243     -0.2718
     87  CB         7.2160    9.8910    2.2670 C.3   243  LYS243      0.0285
     88  CG         8.6860    9.8400    2.0060 C.3   243  LYS243      0.0035
     89  CD         9.2000    8.3850    2.1570 C.3   243  LYS243      0.0206
     90  CE        10.7110    8.3760    1.9960 C.3   243  LYS243      0.1093
     91  NZ        11.0730    6.9960    1.7310 N.3   243  LYS243     -0.1314
     92  N          4.4220   11.0200    2.8870 N.am  244  VAL244     -0.1980
     93  CA         2.9850   10.9490    2.7870 C.3   244  VAL244      0.1595
     94  C          2.3810   12.2860    2.2860 C.2   244  VAL244      0.2287
     95  O          1.5250   12.3020    1.4010 O.2   244  VAL244     -0.2864
     96  CB         2.2700   10.3140    4.0500 C.3   244  VAL244      0.0276
     97  CG1        3.1950    9.4670    4.8620 C.3   244  VAL244      0.0022
     98  CG2        1.6210   11.3090    4.9000 C.3   244  VAL244      0.0022
     99  N          3.7000   14.6520    0.4030 N.3   246  ASP246     -0.1225
    100  CA         4.1410   15.1600   -0.8650 C.3   246  ASP246      0.1805
    101  C          3.6690   14.3080   -2.0240 C.2   246  ASP246      0.2598
    102  O          3.8170   14.6920   -3.1760 O.2   246  ASP246     -0.2718
    103  CB         5.6470   15.2970   -0.8460 C.3   246  ASP246      0.1424
    104  CG         6.0930   16.6110   -0.2770 C.2   246  ASP246      0.3668
    105  OD1        5.2080   17.4080    0.1380 O.co2 246  ASP246     -0.2456
    106  OD2        7.3260   16.8770   -0.2730 O.co2 246  ASP246     -0.2456
    107  N          3.0690   13.1570   -1.7210 N.am  247  GLN247     -0.1965
    108  CA         2.6710   12.1990   -2.7550 C.3   247  GLN247      0.1733
    109  C          1.6380   12.6780   -3.8070 C.2   247  GLN247      0.2616
    110  O          1.7890   12.3650   -4.9860 O.2   247  GLN247     -0.2715
    111  CB         2.2330   10.8870   -2.1290 C.3   247  GLN247      0.0408
    112  CG         2.4100    9.7480   -3.1070 C.3   247  GLN247      0.0908
    113  CD         1.7180    8.4910   -2.6710 C.2   247  GLN247      0.2608
    114  OE1        1.3810    7.6220   -3.5080 O.2   247  GLN247     -0.2717
    115  NE2        1.4670    8.3800   -1.3490 N.am  247  GLN247     -0.0878
    116  N          0.6310   13.4590   -3.4080 N.am  248  PHE248     -0.1960
    117  CA        -0.4510   13.8220   -4.3210 C.3   248  PHE248      0.1771
    118  C         -0.4370   15.2520   -4.8760 C.2   248  PHE248      0.2620
    119  O          0.2250   16.1340   -4.3240 O.2   248  PHE248     -0.2715
    120  CB        -1.7880   13.5650   -3.6360 C.3   248  PHE248      0.0574
    121  CG        -1.8880   12.2040   -3.0180 C.ar  248  PHE248     -0.0200
    122  CD1       -1.7300   11.0650   -3.7910 C.ar  248  PHE248     -0.0042
    123  CD2       -2.1310   12.0660   -1.6540 C.ar  248  PHE248     -0.0042
    124  CE1       -1.8100    9.8060   -3.2450 C.ar  248  PHE248     -0.0003
    125  CE2       -2.2280   10.8040   -1.0830 C.ar  248  PHE248     -0.0003
    126  CZ        -2.0680    9.6640   -1.8950 C.ar  248  PHE248     -0.0000
    127  N         -1.2000   15.4450   -5.9610 N.am  249  GLY249     -0.1940
    128  CA        -1.4850   16.7300   -6.5520 C.3   249  GLY249      0.2014
    129  C         -2.3120   17.6540   -5.6720 C.2   249  GLY249      0.2638
    130  O         -3.2210   17.1890   -4.9920 O.2   249  GLY249     -0.2714
    131  N         -2.0030   18.9630   -5.7120 N.am  250  GLU250     -0.1977
    132  CA        -2.7690   20.0100   -5.0000 C.3   250  GLU250      0.1602
    133  C         -4.2340   19.9670   -5.3920 C.2   250  GLU250      0.2287
    134  O         -4.5540   19.8990   -6.5910 O.2   250  GLU250     -0.2864
    135  CB        -2.1990   21.4270   -5.2450 C.3   250  GLU250      0.0415
    136  CG        -2.7650   22.5680   -4.2680 C.3   250  GLU250      0.1163
    137  CD        -4.1850   23.0260   -4.6130 C.2   250  GLU250      0.3649
    138  OE1       -5.0250   23.1760   -3.6900 O.co2 250  GLU250     -0.2457
    139  OE2       -4.4720   23.1870   -5.8220 O.co2 250  GLU250     -0.2457
@<TRIPOS>BOND
     1   134   133    2
     2   128   127    1
     3   128   129    1
     4   127   118   am
     5   139   137   ar
     6   131   129   am
     7   131   132    1
     8   129   130    2
     9   133   132    1
    10   135   132    1
    11   135   136    1
    12   110   109    2
    13   118   119    2
    14   118   117    1
    15   137   136    1
    16   137   138   ar
    17   117   120    1
    18   117   116    1
    19   109   116   am
    20   109   108    1
    21   122   124   ar
    22   122   121   ar
    23   120   121    1
    24   114   113    2
    25   124   126   ar
    26   102   101    2
    27   112   113    1
    28   112   111    1
    29   121   123   ar
    30   108   111    1
    31   108   107    1
    32   113   115   am
    33   101   107   am
    34   101   100    1
    35   126   125   ar
    36   123   125   ar
    37   100   103    1
    38   100    99    1
    39   103   104    1
    40   104   106   ar
    41   104   105   ar
    42    86    85    2
    43    95    94    2
    44    91    90    1
    45    12    11    1
    46    85    84    1
    47    85    92   am
    48    84    87    1
    49    84    83    1
    50    90    89    1
    51    88    89    1
    52    88    87    1
    53    94    93    1
    54    93    92    1
    55    93    96    1
    56    11     9   ar
    57    11    10   ar
    58     9     7   ar
    59    96    97    1
    60    96    98    1
    61    10     8   ar
    62     7     6   ar
    63    63    62    2
    64    67    66    1
    65    67    68    1
    66    65    66    1
    67    65    64    1
    68     8     6   ar
    69    72    71    2
    70     6     5    1
    71    62    61    1
    72    62    69   am
    73    61    64    1
    74    61    60    1
    75    71    70    1
    76    70    69    1
    77    70    73    1
    78     5     2    1
    79    75    77   ar
    80    75    74   ar
    81    77    78   ar
    82    74    73    1
    83    74    76   ar
    84     2     1    1
    85     2     3    1
    86    28    27    1
    87    28    29    1
    88    27    24    1
    89    78    76   ar
    90    78    80   ar
    91    29    23    1
    92    76    79   ar
    93    80    82   ar
    94     3     4    2
    95    24    23    1
    96    24    25    1
    97    79    81   ar
    98    23    15   am
    99    82    81   ar
   100    55    54    2
   101    25    26    2
   102    25    30   am
   103    22    21   ar
   104    22    20   ar
   105    54    53    1
   106    15    14    1
   107    15    16    2
   108    14    13    1
   109    14    17    1
   110    36    35    1
   111    36    37    1
   112    21    19   ar
   113    20    18   ar
   114    35    34    1
   115    19    18   ar
   116    18    17    1
   117    30    31    1
   118    37    38    2
   119    53    56    1
   120    53    52    1
   121    39    38    1
   122    34    31    1
   123    38    40    1
   124    31    32    1
   125    56    57    1
   126    59    57    1
   127    48    47    1
   128    48    49    2
   129    47    46    1
   130    32    33    2
   131    57    58    1
   132    51    49    1
   133    49    50    1
   134    46    45    1
   135    45    42    1
   136    44    43    2
   137    42    43    1
   138    42    41    1
