@<TRIPOS>MOLECULE
tmp/2h9yA01.pdb
 153 154 0 0 0
SMALL
GASTEIGER

@<TRIPOS>ATOM
      1  N         27.3020   24.9550   19.4290 N.3    86  TRP86      -0.1241
      2  CA        28.1620   23.7830   19.2660 C.3    86  TRP86       0.1605
      3  C         29.5820   24.0060   19.7720 C.2    86  TRP86       0.2264
      4  O         30.3490   23.0720   19.8610 O.2    86  TRP86      -0.2867
      5  CB        28.2210   23.3710   17.7940 C.3    86  TRP86       0.0550
      6  CG        26.8810   23.1900   17.1890 C.ar   86  TRP86       0.0003
      7  CD1       26.2910   23.9900   16.2690 C.ar   86  TRP86       0.0946
      8  CD2       25.9500   22.1470   17.4730 C.ar   86  TRP86       0.0152
      9  NE1       25.0490   23.5030   15.9410 N.ar   86  TRP86      -0.2442
     10  CE2       24.8190   22.3680   16.6700 C.ar   86  TRP86       0.0810
     11  CE3       25.9650   21.0420   18.3250 C.ar   86  TRP86       0.0012
     12  CZ2       23.7120   21.5240   16.6930 C.ar   86  TRP86       0.0191
     13  CZ3       24.8720   20.2030   18.3470 C.ar   86  TRP86       0.0001
     14  CH2       23.7650   20.4450   17.5300 C.ar   86  TRP86       0.0015
     15  N         29.0080   14.1100   18.3120 N.3   120  GLY120     -0.1210
     16  CA        29.6720   14.2580   17.0250 C.3   120  GLY120      0.1956
     17  C         30.3860   15.5850   16.9230 C.2   120  GLY120      0.2612
     18  O         30.5880   16.2740   17.9360 O.2   120  GLY120     -0.2717
     19  N         30.7150   15.9550   15.6870 N.am  121  GLY121     -0.1942
     20  CA        31.5910   17.1180   15.3870 C.3   121  GLY121      0.2014
     21  C         32.7680   16.7240   14.5000 C.2   121  GLY121      0.2639
     22  O         33.8860   17.2380   14.6620 O.2   121  GLY121     -0.2714
     23  N         32.5170   15.7810   13.5850 N.am  122  GLY122     -0.1954
     24  CA        33.4720   15.3980   12.5480 C.3   122  GLY122      0.1869
     25  C         34.7700   14.7800   13.0250 C.2   122  GLY122      0.2309
     26  O         35.7300   14.7370   12.2820 O.2   122  GLY122     -0.2863
     27  N         36.6680   16.2010   15.0060 N.3   124  TYR124     -0.1227
     28  CA        37.5790   17.3360   15.2590 C.3   124  TYR124      0.1736
     29  C         37.0150   18.2930   16.3130 C.2   124  TYR124      0.2596
     30  O         37.6710   19.2650   16.6910 O.2   124  TYR124     -0.2718
     31  CB        37.8870   18.1340   13.9710 C.3   124  TYR124      0.0548
     32  CG        36.7050   18.8540   13.4130 C.ar  124  TYR124     -0.0200
     33  CD1       36.3740   20.1350   13.8550 C.ar  124  TYR124     -0.0009
     34  CD2       35.8730   18.2530   12.4760 C.ar  124  TYR124     -0.0009
     35  CE1       35.2560   20.8050   13.3690 C.ar  124  TYR124      0.0417
     36  CE2       34.7460   18.9200   11.9810 C.ar  124  TYR124      0.0417
     37  CZ        34.4570   20.1940   12.4360 C.ar  124  TYR124      0.1957
     38  OH        33.3560   20.8610   11.9560 O.3   124  TYR124     -0.2866
     39  N         35.8000   18.0330   16.7780 N.am  125  SER125     -0.1938
     40  CA        35.1500   18.9260   17.7180 C.3   125  SER125      0.2055
     41  C         34.1280   18.1930   18.5780 C.2   125  SER125      0.2643
     42  O         33.8370   16.9900   18.3730 O.2   125  SER125     -0.2714
     43  CB        34.4840   20.0770   16.9630 C.3   125  SER125      0.2130
     44  OG        33.6240   19.5900   15.9400 O.3   125  SER125     -0.2179
     45  N         33.5940   18.9280   19.5490 N.am  126  GLY126     -0.1954
     46  CA        32.5140   18.4220   20.3820 C.3   126  GLY126      0.1869
     47  C         32.8800   18.3320   21.8430 C.2   126  GLY126      0.2309
     48  O         34.0670   18.3640   22.2060 O.2   126  GLY126     -0.2863
     49  N         23.0820   18.5650   24.9310 N.3   133  TYR133     -0.1241
     50  CA        23.3020   17.1880   25.4280 C.3   133  TYR133      0.1605
     51  C         22.9560   17.0350   26.9390 C.2   133  TYR133      0.2264
     52  O         23.3410   16.0660   27.5810 O.2   133  TYR133     -0.2867
     53  CB        24.7530   16.7450   25.1700 C.3   133  TYR133      0.0534
     54  CG        25.2760   16.9540   23.7480 C.ar  133  TYR133     -0.0201
     55  CD1       24.4410   16.8070   22.6400 C.ar  133  TYR133     -0.0009
     56  CD2       26.6180   17.2630   23.5170 C.ar  133  TYR133     -0.0009
     57  CE1       24.9060   16.9890   21.3510 C.ar  133  TYR133      0.0417
     58  CE2       27.1130   17.4380   22.2120 C.ar  133  TYR133      0.0417
     59  CZ        26.2420   17.2960   21.1320 C.ar  133  TYR133      0.1957
     60  OH        26.6820   17.4630   19.8360 O.3   133  TYR133     -0.2866
     61  N         25.2330   11.1270   17.5000 N.3   202  GLU202     -0.1231
     62  CA        24.8660   11.8040   16.2930 C.3   202  GLU202      0.1699
     63  C         26.0850   12.1850   15.4870 C.2   202  GLU202      0.2593
     64  O         27.1270   12.5630   16.0230 O.2   202  GLU202     -0.2718
     65  CB        23.9720   13.0070   16.5810 C.3   202  GLU202      0.0402
     66  CG        23.4230   13.7220   15.3220 C.3   202  GLU202      0.1161
     67  CD        24.2270   14.9590   14.9320 C.2   202  GLU202      0.3649
     68  OE1       25.1990   15.3000   15.6590 O.co2 202  GLU202     -0.2457
     69  OE2       23.8780   15.5870   13.8930 O.co2 202  GLU202     -0.2457
     70  N         25.9440   12.0430   14.1770 N.am  203  SER203     -0.1938
     71  CA        26.9940   12.4000   13.2640 C.3   203  SER203      0.2055
     72  C         28.2460   11.5290   13.4760 C.2   203  SER203      0.2642
     73  O         28.1430   10.3080   13.3940 O.2   203  SER203     -0.2714
     74  CB        27.2270   13.8870   13.4310 C.3   203  SER203      0.2130
     75  OG        27.7280   14.3990   12.2280 O.3   203  SER203     -0.2179
     76  N         29.4000   12.1160   13.7800 N.am  204  ALA204     -0.1977
     77  CA        30.6170   11.3390   14.1400 C.3   204  ALA204      0.1597
     78  C         30.3830   10.4540   15.3650 C.2   204  ALA204      0.2287
     79  O         31.0560    9.4320   15.5440 O.2   204  ALA204     -0.2864
     80  CB        31.8030   12.2730   14.3960 C.3   204  ALA204      0.0319
     81  N         33.5370    9.6000    4.6590 N.3   236  TRP236     -0.1241
     82  CA        34.2290   10.4890    5.6080 C.3   236  TRP236      0.1605
     83  C         34.6190    9.8550    6.9460 C.2   236  TRP236      0.2264
     84  O         35.5600   10.3310    7.5760 O.2   236  TRP236     -0.2867
     85  CB        33.3890   11.7470    5.8910 C.3   236  TRP236      0.0550
     86  CG        32.0150   11.4450    6.4500 C.ar  236  TRP236      0.0003
     87  CD1       30.8610   11.3160    5.7350 C.ar  236  TRP236      0.0946
     88  CD2       31.6590   11.2120    7.8250 C.ar  236  TRP236      0.0152
     89  NE1       29.8130   11.0270    6.5690 N.ar  236  TRP236     -0.2442
     90  CE2       30.2730   10.9450    7.8560 C.ar  236  TRP236      0.0810
     91  CE3       32.3760   11.2010    9.0330 C.ar  236  TRP236      0.0012
     92  CZ2       29.5830   10.6760    9.0460 C.ar  236  TRP236      0.0191
     93  CZ3       31.6970   10.9230   10.2090 C.ar  236  TRP236      0.0001
     94  CH2       30.3070   10.6670   10.2060 C.ar  236  TRP236      0.0015
     95  N         32.5070   18.3070    4.2580 N.3   289  PHE289     -0.1241
     96  CA        32.1680   17.0200    4.8580 C.3   289  PHE289      0.1605
     97  C         33.3500   16.0500    4.7720 C.2   289  PHE289      0.2264
     98  O         33.1700   14.8410    4.5760 O.2   289  PHE289     -0.2867
     99  CB        30.9060   16.4390    4.1960 C.3   289  PHE289      0.0534
    100  CG        29.9560   15.7870    5.1560 C.ar  289  PHE289     -0.0203
    101  CD1       30.3980   14.8470    6.0800 C.ar  289  PHE289     -0.0042
    102  CD2       28.6010   16.0920    5.1170 C.ar  289  PHE289     -0.0042
    103  CE1       29.5180   14.2490    6.9500 C.ar  289  PHE289     -0.0003
    104  CE2       27.7150   15.4900    5.9930 C.ar  289  PHE289     -0.0003
    105  CZ        28.1760   14.5660    6.9050 C.ar  289  PHE289     -0.0000
    106  N         37.1700   15.4870    6.9850 N.3   291  PHE291     -0.1241
    107  CA        37.8370   15.8300    8.2230 C.3   291  PHE291      0.1605
    108  C         39.2000   15.1460    8.2610 C.2   291  PHE291      0.2264
    109  O         39.3500   13.9980    7.8410 O.2   291  PHE291     -0.2867
    110  CB        36.9350   15.4160    9.3890 C.3   291  PHE291      0.0534
    111  CG        35.4910   15.7180    9.1330 C.ar  291  PHE291     -0.0203
    112  CD1       35.0600   17.0500    9.0200 C.ar  291  PHE291     -0.0042
    113  CD2       34.5710   14.6910    8.9220 C.ar  291  PHE291     -0.0042
    114  CE1       33.7150   17.3380    8.7420 C.ar  291  PHE291     -0.0003
    115  CE2       33.2400   14.9750    8.6380 C.ar  291  PHE291     -0.0003
    116  CZ        32.8080   16.3050    8.5520 C.ar  291  PHE291     -0.0000
    117  N         23.4340   22.4940    6.0580 N.3   331  TYR331     -0.1227
    118  CA        24.3690   23.0720    7.0310 C.3   331  TYR331      0.1736
    119  C         25.8130   23.1130    6.5230 C.2   331  TYR331      0.2595
    120  O         26.5420   24.0840    6.7540 O.2   331  TYR331     -0.2718
    121  CB        24.2510   22.2920    8.3300 C.3   331  TYR331      0.0548
    122  CG        25.3420   22.4710    9.3240 C.ar  331  TYR331     -0.0200
    123  CD1       25.2790   23.4680   10.2940 C.ar  331  TYR331     -0.0009
    124  CD2       26.4230   21.6240    9.3310 C.ar  331  TYR331     -0.0009
    125  CE1       26.2960   23.6320   11.2290 C.ar  331  TYR331      0.0417
    126  CE2       27.4480   21.7850   10.2540 C.ar  331  TYR331      0.0417
    127  CZ        27.3710   22.7830   11.2030 C.ar  331  TYR331      0.1957
    128  OH        28.3970   22.8990   12.1210 O.3   331  TYR331     -0.2866
    129  N         26.1980   22.0670    5.8030 N.am  332  PHE332     -0.1976
    130  CA        27.5590   21.9180    5.3190 C.3   332  PHE332      0.1639
    131  C         27.9100   22.8270    4.1520 C.2   332  PHE332      0.2290
    132  O         29.0820   23.0840    3.9050 O.2   332  PHE332     -0.2864
    133  CB        27.8030   20.4480    4.9550 C.3   332  PHE332      0.0560
    134  CG        27.7460   19.5470    6.1450 C.ar  332  PHE332     -0.0200
    135  CD1       26.5490   18.9510    6.5210 C.ar  332  PHE332     -0.0042
    136  CD2       28.8670   19.3720    6.9470 C.ar  332  PHE332     -0.0042
    137  CE1       26.4780   18.1650    7.6640 C.ar  332  PHE332     -0.0003
    138  CE2       28.8030   18.5660    8.0830 C.ar  332  PHE332     -0.0003
    139  CZ        27.6120   17.9570    8.4320 C.ar  332  PHE332     -0.0000
    140  N         21.0140   19.1830    9.6570 N.3   441  HIS441     -0.1226
    141  CA        21.8330   18.3000   10.4520 C.3   441  HIS441      0.1752
    142  C         22.0680   18.8820   11.8690 C.2   441  HIS441      0.2596
    143  O         22.4320   20.0440   12.0250 O.2   441  HIS441     -0.2718
    144  CB        23.1430   18.1350    9.6890 C.3   441  HIS441      0.0759
    145  CG        24.0580   17.1080   10.2470 C.ar  441  HIS441      0.0818
    146  ND1       23.8650   15.7580   10.0440 N.ar  441  HIS441     -0.2268
    147  CD2       25.2040   17.2290   10.9530 C.ar  441  HIS441      0.1154
    148  CE1       24.8450   15.0870   10.6280 C.ar  441  HIS441      0.1986
    149  NE2       25.6680   15.9550   11.1870 N.ar  441  HIS441     -0.2212
    150  N         21.8160   18.0650   12.8880 N.am  442  GLY442     -0.1957
    151  CA        22.0190   18.4580   14.2810 C.3   442  GLY442      0.1869
    152  C         20.7600   18.8710   15.0330 C.2   442  GLY442      0.2309
    153  O         20.7760   18.9170   16.2640 O.2   442  GLY442     -0.2863
@<TRIPOS>BOND
     1   132   131    2
     2   131   130    1
     3    99    96    1
     4    99   100    1
     5    95    96    1
     6    98    97    2
     7    81    82    1
     8    97    96    1
     9   133   130    1
    10   133   134    1
    11   102   100   ar
    12   102   104   ar
    13   100   101   ar
    14   130   129    1
    15    82    85    1
    16    82    83    1
    17    87    86   ar
    18    87    89   ar
    19   129   119   am
    20    85    86    1
    21   104   105   ar
    22   117   118    1
    23   101   103   ar
    24   134   135   ar
    25   134   136   ar
    26    86    88   ar
    27   135   137   ar
    28   119   120    2
    29   119   118    1
    30    89    90   ar
    31   105   103   ar
    32    83    84    2
    33   136   138   ar
    34   106   107    1
    35   118   121    1
    36   137   139   ar
    37    88    90   ar
    38    88    91   ar
    39   109   108    2
    40    90    92   ar
    41   138   139   ar
    42   107   108    1
    43   107   110    1
    44   121   122    1
    45   116   115   ar
    46   116   114   ar
    47   115   113   ar
    48   114   112   ar
    49   113   111   ar
    50   112   111   ar
    51    91    93   ar
    52    92    94   ar
    53   111   110    1
    54   122   124   ar
    55   122   123   ar
    56   124   126   ar
    57   140   141    1
    58   144   145    1
    59   144   141    1
    60   146   145   ar
    61   146   148   ar
    62    94    93   ar
    63   145   147   ar
    64   126   127   ar
    65   123   125   ar
    66   141   142    1
    67   148   149   ar
    68   147   149   ar
    69   127   125   ar
    70   127   128    1
    71   142   143    2
    72   142   150   am
    73    38    37    1
    74    36    37   ar
    75    36    34   ar
    76    75    74    1
    77    26    25    2
    78    37    35   ar
    79    34    32   ar
    80    24    25    1
    81    24    23    1
    82   150   151    1
    83    71    74    1
    84    71    72    1
    85    71    70    1
    86    35    33   ar
    87    73    72    2
    88    32    33   ar
    89    32    31    1
    90    72    76   am
    91    23    21   am
    92    76    77    1
    93    69    67   ar
    94    31    28    1
    95    77    80    1
    96    77    78    1
    97    70    63   am
    98   151   152    1
    99    21    22    2
   100    21    20    1
   101    67    66    1
   102    67    68   ar
   103    27    28    1
   104   152   153    2
   105    28    29    1
   106    66    65    1
   107    78    79    2
   108    20    19    1
   109    63    64    2
   110    63    62    1
   111    19    17   am
   112    44    43    1
   113     9     7   ar
   114     9    10   ar
   115     7     6   ar
   116    62    65    1
   117    62    61    1
   118    29    30    2
   119    29    39   am
   120    10    12   ar
   121    10     8   ar
   122    12    14   ar
   123    39    40    1
   124    17    16    1
   125    17    18    2
   126    43    40    1
   127    16    15    1
   128     6     8   ar
   129     6     5    1
   130     8    11   ar
   131    14    13   ar
   132    40    41    1
   133     5     2    1
   134    11    13   ar
   135    42    41    2
   136    41    45   am
   137     2     1    1
   138     2     3    1
   139    45    46    1
   140     3     4    2
   141    60    59    1
   142    46    47    1
   143    59    57   ar
   144    59    58   ar
   145    57    55   ar
   146    47    48    2
   147    58    56   ar
   148    55    54   ar
   149    56    54   ar
   150    54    53    1
   151    49    50    1
   152    53    50    1
   153    50    51    1
   154    51    52    2
