@<TRIPOS>MOLECULE
tmp/2h9yA03.pdb
 116 117 0 0 0
SMALL
GASTEIGER

@<TRIPOS>ATOM
      1  N         39.8090   22.5880   17.3330 N.3    72  TYR72      -0.1241
      2  CA        39.4470   23.6830   16.4470 C.3    72  TYR72       0.1605
      3  C         38.0840   24.2330   16.8450 C.2    72  TYR72       0.2264
      4  O         37.1480   23.4780   17.0820 O.2    72  TYR72      -0.2867
      5  CB        39.4190   23.2010   14.9920 C.3    72  TYR72       0.0534
      6  CG        38.8720   24.2200   14.0210 C.ar   72  TYR72      -0.0201
      7  CD1       37.5390   24.1750   13.6220 C.ar   72  TYR72      -0.0009
      8  CD2       39.6740   25.2320   13.5070 C.ar   72  TYR72      -0.0009
      9  CE1       37.0090   25.1080   12.7310 C.ar   72  TYR72       0.0417
     10  CE2       39.1570   26.1730   12.6100 C.ar   72  TYR72       0.0417
     11  CZ        37.8160   26.0990   12.2310 C.ar   72  TYR72       0.1957
     12  OH        37.2680   27.0180   11.3500 O.3    72  TYR72      -0.2866
     13  N         35.0050   26.7240   15.7510 N.3    74  ASP74      -0.1239
     14  CA        34.3540   27.3410   14.6000 C.3    74  ASP74       0.1674
     15  C         34.2450   28.8260   14.8210 C.2    74  ASP74       0.2266
     16  O         33.7860   29.2650   15.8650 O.2    74  ASP74      -0.2867
     17  CB        32.9560   26.7440   14.4150 C.3    74  ASP74       0.1410
     18  CG        32.1640   27.4040   13.3050 C.2    74  ASP74       0.3668
     19  OD1       32.7600   28.0220   12.4010 O.co2  74  ASP74      -0.2456
     20  OD2       30.9200   27.2870   13.3400 O.co2  74  ASP74      -0.2456
     21  N         36.6680   16.2010   15.0060 N.3   124  TYR124     -0.1227
     22  CA        37.5790   17.3360   15.2590 C.3   124  TYR124      0.1736
     23  C         37.0150   18.2930   16.3130 C.2   124  TYR124      0.2596
     24  O         37.6710   19.2650   16.6910 O.2   124  TYR124     -0.2718
     25  CB        37.8870   18.1340   13.9710 C.3   124  TYR124      0.0548
     26  CG        36.7050   18.8540   13.4130 C.ar  124  TYR124     -0.0200
     27  CD1       36.3740   20.1350   13.8550 C.ar  124  TYR124     -0.0009
     28  CD2       35.8730   18.2530   12.4760 C.ar  124  TYR124     -0.0009
     29  CE1       35.2560   20.8050   13.3690 C.ar  124  TYR124      0.0417
     30  CE2       34.7460   18.9200   11.9810 C.ar  124  TYR124      0.0417
     31  CZ        34.4570   20.1940   12.4360 C.ar  124  TYR124      0.1957
     32  OH        33.3560   20.8610   11.9560 O.3   124  TYR124     -0.2866
     33  N         35.8000   18.0330   16.7780 N.am  125  SER125     -0.1952
     34  CA        35.1500   18.9260   17.7180 C.3   125  SER125      0.1924
     35  C         34.1280   18.1930   18.5780 C.2   125  SER125      0.2314
     36  O         33.8370   16.9900   18.3730 O.2   125  SER125     -0.2863
     37  CB        34.4840   20.0770   16.9630 C.3   125  SER125      0.2116
     38  OG        33.6240   19.5900   15.9400 O.3   125  SER125     -0.2180
     39  N         46.0620   24.6340   14.5580 N.3   277  ASP277     -0.1239
     40  CA        46.2300   25.6370   13.4920 C.3   277  ASP277      0.1674
     41  C         46.5590   25.0500   12.1030 C.2   277  ASP277      0.2266
     42  O         46.2890   25.6970   11.1100 O.2   277  ASP277     -0.2867
     43  CB        47.2930   26.6870   13.8720 C.3   277  ASP277      0.1410
     44  CG        46.8500   27.6070   15.0240 C.2   277  ASP277      0.3668
     45  OD1       45.6750   27.5600   15.4740 O.co2 277  ASP277     -0.2456
     46  OD2       47.7120   28.3790   15.4950 O.co2 277  ASP277     -0.2456
     47  N         43.4460   21.5190    9.2460 N.3   280  TRP280     -0.1227
     48  CA        42.7400   21.5650    7.9590 C.3   280  TRP280      0.1737
     49  C         43.6690   21.6430    6.7420 C.2   280  TRP280      0.2595
     50  O         43.2210   21.5400    5.6100 O.2   280  TRP280     -0.2718
     51  CB        41.7800   22.7580    7.9360 C.3   280  TRP280      0.0564
     52  CG        40.7770   22.6520    8.9910 C.ar  280  TRP280      0.0003
     53  CD1       40.7890   23.2680   10.2060 C.ar  280  TRP280      0.0946
     54  CD2       39.6200   21.8250    8.9690 C.ar  280  TRP280      0.0152
     55  NE1       39.7050   22.8800   10.9420 N.ar  280  TRP280     -0.2442
     56  CE2       38.9680   21.9900   10.2080 C.ar  280  TRP280      0.0810
     57  CE3       39.0720   20.9500    8.0230 C.ar  280  TRP280      0.0012
     58  CZ2       37.7890   21.3400   10.5200 C.ar  280  TRP280      0.0191
     59  CZ3       37.8980   20.2840    8.3400 C.ar  280  TRP280      0.0001
     60  CH2       37.2680   20.4870    9.5770 C.ar  280  TRP280      0.0015
     61  N         44.9620   21.8200    6.9580 N.am  281  HIS281     -0.1975
     62  CA        45.8830   21.9880    5.8340 C.3   281  HIS281      0.1656
     63  C         46.2860   20.6890    5.1430 C.2   281  HIS281      0.2291
     64  O         46.9890   20.7310    4.1380 O.2   281  HIS281     -0.2864
     65  CB        47.1320   22.7390    6.2870 C.3   281  HIS281      0.0771
     66  CG        46.8670   24.1510    6.7100 C.ar  281  HIS281      0.0820
     67  ND1       45.6900   24.8080    6.4260 N.ar  281  HIS281     -0.2267
     68  CD2       47.6480   25.0470    7.3560 C.ar  281  HIS281      0.1154
     69  CE1       45.7490   26.0400    6.9000 C.ar  281  HIS281      0.1986
     70  NE2       46.9280   26.2110    7.4680 N.ar  281  HIS281     -0.2212
     71  N         37.1700   15.4870    6.9850 N.3   291  PHE291     -0.1241
     72  CA        37.8370   15.8300    8.2230 C.3   291  PHE291      0.1605
     73  C         39.2000   15.1460    8.2610 C.2   291  PHE291      0.2264
     74  O         39.3500   13.9980    7.8410 O.2   291  PHE291     -0.2867
     75  CB        36.9350   15.4160    9.3890 C.3   291  PHE291      0.0534
     76  CG        35.4910   15.7180    9.1330 C.ar  291  PHE291     -0.0203
     77  CD1       35.0600   17.0500    9.0200 C.ar  291  PHE291     -0.0042
     78  CD2       34.5710   14.6910    8.9220 C.ar  291  PHE291     -0.0042
     79  CE1       33.7150   17.3380    8.7420 C.ar  291  PHE291     -0.0003
     80  CE2       33.2400   14.9750    8.6380 C.ar  291  PHE291     -0.0003
     81  CZ        32.8080   16.3050    8.5520 C.ar  291  PHE291     -0.0000
     82  N         23.4340   22.4940    6.0580 N.3   331  TYR331     -0.1227
     83  CA        24.3690   23.0720    7.0310 C.3   331  TYR331      0.1736
     84  C         25.8130   23.1130    6.5230 C.2   331  TYR331      0.2595
     85  O         26.5420   24.0840    6.7540 O.2   331  TYR331     -0.2718
     86  CB        24.2510   22.2920    8.3300 C.3   331  TYR331      0.0548
     87  CG        25.3420   22.4710    9.3240 C.ar  331  TYR331     -0.0200
     88  CD1       25.2790   23.4680   10.2940 C.ar  331  TYR331     -0.0009
     89  CD2       26.4230   21.6240    9.3310 C.ar  331  TYR331     -0.0009
     90  CE1       26.2960   23.6320   11.2290 C.ar  331  TYR331      0.0417
     91  CE2       27.4480   21.7850   10.2540 C.ar  331  TYR331      0.0417
     92  CZ        27.3710   22.7830   11.2030 C.ar  331  TYR331      0.1957
     93  OH        28.3970   22.8990   12.1210 O.3   331  TYR331     -0.2866
     94  N         26.1980   22.0670    5.8030 N.am  332  PHE332     -0.1976
     95  CA        27.5590   21.9180    5.3190 C.3   332  PHE332      0.1639
     96  C         27.9100   22.8270    4.1520 C.2   332  PHE332      0.2290
     97  O         29.0820   23.0840    3.9050 O.2   332  PHE332     -0.2864
     98  CB        27.8030   20.4480    4.9550 C.3   332  PHE332      0.0560
     99  CG        27.7460   19.5470    6.1450 C.ar  332  PHE332     -0.0200
    100  CD1       26.5490   18.9510    6.5210 C.ar  332  PHE332     -0.0042
    101  CD2       28.8670   19.3720    6.9470 C.ar  332  PHE332     -0.0042
    102  CE1       26.4780   18.1650    7.6640 C.ar  332  PHE332     -0.0003
    103  CE2       28.8030   18.5660    8.0830 C.ar  332  PHE332     -0.0003
    104  CZ        27.6120   17.9570    8.4320 C.ar  332  PHE332     -0.0000
    105  N         29.9730   26.0800    4.8860 N.3   335  TYR335     -0.1241
    106  CA        31.3620   25.9090    5.3300 C.3   335  TYR335      0.1605
    107  C         32.3170   25.5570    4.1720 C.2   335  TYR335      0.2264
    108  O         33.3030   24.8370    4.3670 O.2   335  TYR335     -0.2867
    109  CB        31.4310   24.8380    6.4530 C.3   335  TYR335      0.0534
    110  CG        30.8400   25.3480    7.7600 C.ar  335  TYR335     -0.0201
    111  CD1       29.4950   25.1480    8.0770 C.ar  335  TYR335     -0.0009
    112  CD2       31.6140   26.0970    8.6410 C.ar  335  TYR335     -0.0009
    113  CE1       28.9520   25.6520    9.2470 C.ar  335  TYR335      0.0417
    114  CE2       31.0740   26.5980    9.8240 C.ar  335  TYR335      0.0417
    115  CZ        29.7530   26.3730   10.1140 C.ar  335  TYR335      0.1957
    116  OH        29.2440   26.8780   11.2880 O.3   335  TYR335     -0.2866
@<TRIPOS>BOND
     1    97    96    2
     2    64    63    2
     3    96    95    1
     4   107   108    2
     5   107   106    1
     6   105   106    1
     7    98    95    1
     8    98    99    1
     9    63    62    1
    10    95    94    1
    11   106   109    1
    12    50    49    2
    13    94    84   am
    14    62    65    1
    15    62    61    1
    16    82    83    1
    17    99   100   ar
    18    99   101   ar
    19    65    66    1
    20    67    66   ar
    21    67    69   ar
    22   109   110    1
    23   100   102   ar
    24    84    85    2
    25    84    83    1
    26    66    68   ar
    27    49    61   am
    28    49    48    1
    29    69    70   ar
    30   101   103   ar
    31    71    72    1
    32    83    86    1
    33    68    70   ar
    34   102   104   ar
    35   110   111   ar
    36   110   112   ar
    37    74    73    2
    38    51    48    1
    39    51    52    1
    40    48    47    1
    41    57    59   ar
    42    57    54   ar
    43   111   113   ar
    44   103   104   ar
    45    72    73    1
    46    72    75    1
    47    86    87    1
    48    59    60   ar
    49    81    80   ar
    50    81    79   ar
    51    80    78   ar
    52   112   114   ar
    53    79    77   ar
    54    78    76   ar
    55    54    52   ar
    56    54    56   ar
    57    52    53   ar
    58    77    76   ar
    59    76    75    1
    60   113   115   ar
    61    87    89   ar
    62    87    88   ar
    63    89    91   ar
    64    60    58   ar
    65   114   115   ar
    66   115   116    1
    67    53    55   ar
    68    56    58   ar
    69    56    55   ar
    70    91    92   ar
    71    88    90   ar
    72    42    41    2
    73    92    90   ar
    74    92    93    1
    75    12    11    1
    76    32    31    1
    77    30    31   ar
    78    30    28   ar
    79    41    40    1
    80    11    10   ar
    81    11     9   ar
    82    19    18   ar
    83    31    29   ar
    84    28    26   ar
    85    10     8   ar
    86     9     7   ar
    87    18    20   ar
    88    18    17    1
    89    29    27   ar
    90    26    27   ar
    91    26    25    1
    92    40    43    1
    93    40    39    1
    94     8     6   ar
    95     7     6   ar
    96    43    44    1
    97    25    22    1
    98     6     5    1
    99    17    14    1
   100    14    15    1
   101    14    13    1
   102    15    16    2
   103     5     2    1
   104    21    22    1
   105    44    45   ar
   106    44    46   ar
   107    22    23    1
   108    38    37    1
   109    23    24    2
   110    23    33   am
   111     2     3    1
   112     2     1    1
   113    33    34    1
   114     3     4    2
   115    37    34    1
   116    34    35    1
   117    36    35    2
