@<TRIPOS>MOLECULE
tmp/2ha0B02.pdb
 157 157 0 0 0
SMALL
GASTEIGER

@<TRIPOS>ATOM
      1  N          0.7050   -6.9420  -41.2160 N.3    83  TRP83      -0.1241
      2  CA         1.8230   -6.1450  -41.6810 C.3    83  TRP83       0.1605
      3  C          2.5660   -6.8210  -42.8190 C.2    83  TRP83       0.2264
      4  O          3.4360   -6.2000  -43.4410 O.2    83  TRP83      -0.2867
      5  CB         2.7860   -5.9110  -40.5390 C.3    83  TRP83       0.0550
      6  CG         2.1640   -5.2560  -39.3960 C.ar   83  TRP83       0.0003
      7  CD1        1.8740   -5.8220  -38.2060 C.ar   83  TRP83       0.0946
      8  CD2        1.7310   -3.8870  -39.3170 C.ar   83  TRP83       0.0152
      9  NE1        1.2930   -4.8970  -37.3740 N.ar   83  TRP83      -0.2442
     10  CE2        1.1930   -3.6990  -38.0300 C.ar   83  TRP83       0.0810
     11  CE3        1.7510   -2.8070  -40.2060 C.ar   83  TRP83       0.0012
     12  CZ2        0.6860   -2.4690  -37.5980 C.ar   83  TRP83       0.0191
     13  CZ3        1.2440   -1.5770  -39.7840 C.ar   83  TRP83       0.0001
     14  CH2        0.7170   -1.4200  -38.4890 C.ar   83  TRP83       0.0015
     15  N          6.5440    2.2960  -42.7470 N.3   117  GLY117     -0.1210
     16  CA         7.6220    1.7150  -41.9390 C.3   117  GLY117      0.1956
     17  C          7.7720    0.2170  -42.1410 C.2   117  GLY117      0.2612
     18  O          7.1370   -0.3630  -43.0210 O.2   117  GLY117     -0.2717
     19  N          8.6090   -0.3980  -41.3070 N.am  118  GLY118     -0.1942
     20  CA         9.0400   -1.8060  -41.4570 C.3   118  GLY118      0.2014
     21  C         10.5430   -2.0450  -41.3390 C.2   118  GLY118      0.2639
     22  O         11.0990   -2.9600  -41.9680 O.2   118  GLY118     -0.2714
     23  N         11.2040   -1.2380  -40.5180 N.am  119  GLY119     -0.1954
     24  CA        12.6280   -1.3520  -40.2490 C.3   119  GLY119      0.1869
     25  C         13.5340   -1.2690  -41.4570 C.2   119  GLY119      0.2309
     26  O         14.6470   -1.7780  -41.4160 O.2   119  GLY119     -0.2863
     27  N         13.3740   -3.0450  -43.8490 N.3   121  TYR121     -0.1227
     28  CA        13.4550   -4.4020  -44.4060 C.3   121  TYR121      0.1736
     29  C         12.0840   -4.9100  -44.9190 C.2   121  TYR121      0.2596
     30  O         11.9980   -6.0060  -45.4940 O.2   121  TYR121     -0.2718
     31  CB        14.0550   -5.3960  -43.3680 C.3   121  TYR121      0.0548
     32  CG        13.0910   -5.7920  -42.2720 C.ar  121  TYR121     -0.0200
     33  CD1       12.1620   -6.8030  -42.4730 C.ar  121  TYR121     -0.0009
     34  CD2       13.0850   -5.1360  -41.0530 C.ar  121  TYR121     -0.0009
     35  CE1       11.2520   -7.1590  -41.4910 C.ar  121  TYR121      0.0417
     36  CE2       12.1680   -5.4740  -40.0600 C.ar  121  TYR121      0.0417
     37  CZ        11.2520   -6.5000  -40.2900 C.ar  121  TYR121      0.1957
     38  OH        10.3360   -6.8630  -39.3150 O.3   121  TYR121     -0.2866
     39  N         11.0240   -4.1090  -44.7380 N.am  122  SER122     -0.1952
     40  CA         9.6740   -4.5550  -45.0240 C.3   122  SER122      0.1924
     41  C          8.7020   -3.4030  -45.1980 C.2   122  SER122      0.2314
     42  O          9.0420   -2.2480  -44.9700 O.2   122  SER122     -0.2863
     43  CB         9.1730   -5.4420  -43.8860 C.3   122  SER122      0.2116
     44  OG         9.2130   -4.7390  -42.6660 O.3   122  SER122     -0.2180
     45  N         -1.1220   -2.0490  -47.7110 N.3   127  LEU127     -0.1245
     46  CA        -1.7080   -2.5920  -46.4820 C.3   127  LEU127      0.1561
     47  C         -3.0030   -1.8500  -46.1640 C.2   127  LEU127      0.2260
     48  O         -3.1340   -0.6660  -46.4700 O.2   127  LEU127     -0.2867
     49  CB        -0.7250   -2.4900  -45.3230 C.3   127  LEU127      0.0270
     50  CG         0.6390   -3.1740  -45.5130 C.3   127  LEU127      0.0019
     51  CD1        1.4700   -3.0370  -44.2520 C.3   127  LEU127      0.0001
     52  CD2        0.4870   -4.6350  -45.9210 C.3   127  LEU127      0.0001
     53  N         -3.1400    1.6020  -44.3600 N.3   130  TYR130     -0.1241
     54  CA        -2.6610    2.7920  -45.0780 C.3   130  TYR130      0.1605
     55  C         -3.6400    3.2860  -46.1430 C.2   130  TYR130      0.2264
     56  O         -3.2650    4.0520  -47.0350 O.2   130  TYR130     -0.2867
     57  CB        -1.3260    2.5100  -45.7420 C.3   130  TYR130      0.0534
     58  CG        -0.2470    1.9450  -44.8390 C.ar  130  TYR130     -0.0201
     59  CD1       -0.2120    2.2330  -43.4760 C.ar  130  TYR130     -0.0009
     60  CD2        0.7440    1.1430  -45.3580 C.ar  130  TYR130     -0.0009
     61  CE1        0.7670    1.7200  -42.6630 C.ar  130  TYR130      0.0417
     62  CE2        1.7480    0.6290  -44.5450 C.ar  130  TYR130      0.0417
     63  CZ         1.7550    0.9260  -43.2040 C.ar  130  TYR130      0.1957
     64  OH         2.7340    0.4180  -42.4070 O.3   130  TYR130     -0.2866
     65  N          5.5730    6.5240  -40.3340 N.3   199  GLU199     -0.1231
     66  CA         5.7180    5.8770  -39.0300 C.3   199  GLU199      0.1699
     67  C          6.8920    4.8880  -38.9880 C.2   199  GLU199      0.2593
     68  O          7.1650    4.2180  -39.9690 O.2   199  GLU199     -0.2718
     69  CB         4.4400    5.1300  -38.6860 C.3   199  GLU199      0.0402
     70  CG         4.3990    4.5490  -37.2730 C.3   199  GLU199      0.1161
     71  CD         4.8880    3.0940  -37.1400 C.2   199  GLU199      0.3649
     72  OE1        5.1270    2.3970  -38.1420 O.co2 199  GLU199     -0.2457
     73  OE2        5.0340    2.6410  -35.9900 O.co2 199  GLU199     -0.2457
     74  N          7.5490    4.8020  -37.8330 N.am  200  SER200     -0.1938
     75  CA         8.7150    3.9300  -37.6250 C.3   200  SER200      0.2055
     76  C          9.7750    4.2960  -38.6620 C.2   200  SER200      0.2642
     77  O         10.1130    5.4850  -38.7550 O.2   200  SER200     -0.2714
     78  CB         8.2860    2.4620  -37.6500 C.3   200  SER200      0.2130
     79  OG         9.2980    1.6080  -37.1370 O.3   200  SER200     -0.2179
     80  N         10.2690    3.3450  -39.4610 N.am  201  ALA201     -0.1977
     81  CA        11.3020    3.6570  -40.4730 C.3   201  ALA201      0.1597
     82  C         10.8050    4.6760  -41.5020 C.2   201  ALA201      0.2287
     83  O         11.5960    5.3490  -42.1510 O.2   201  ALA201     -0.2864
     84  CB        11.7990    2.4000  -41.1690 C.3   201  ALA201      0.0319
     85  N         19.1920    2.8270  -34.5680 N.3   233  TRP233     -0.1241
     86  CA        18.8350    1.8180  -35.5820 C.3   233  TRP233      0.1605
     87  C         18.6460    2.3550  -37.0090 C.2   233  TRP233      0.2264
     88  O         18.6620    1.5800  -37.9750 O.2   233  TRP233     -0.2867
     89  CB        17.5710    1.0770  -35.1490 C.3   233  TRP233      0.0550
     90  CG        16.4060    1.9810  -34.9270 C.ar  233  TRP233      0.0003
     91  CD1       16.0360    2.5520  -33.7490 C.ar  233  TRP233      0.0946
     92  CD2       15.4700    2.4440  -35.9080 C.ar  233  TRP233      0.0152
     93  NE1       14.9270    3.3300  -33.9260 N.ar  233  TRP233     -0.2442
     94  CE2       14.5520    3.2840  -35.2410 C.ar  233  TRP233      0.0810
     95  CE3       15.3030    2.2170  -37.2810 C.ar  233  TRP233      0.0012
     96  CZ2       13.4830    3.9020  -35.8970 C.ar  233  TRP233      0.0191
     97  CZ3       14.2350    2.8320  -37.9380 C.ar  233  TRP233      0.0001
     98  CH2       13.3490    3.6740  -37.2420 C.ar  233  TRP233      0.0015
     99  N         15.1200   -4.7970  -32.4430 N.3   288  PHE288     -0.1241
    100  CA        15.0330   -3.4370  -32.9570 C.3   288  PHE288      0.1605
    101  C         16.3390   -3.0390  -33.6430 C.2   288  PHE288      0.2264
    102  O         16.7990   -1.8990  -33.5120 O.2   288  PHE288     -0.2867
    103  CB        14.6650   -2.4680  -31.8200 C.3   288  PHE288      0.0534
    104  CG        13.7620   -1.3250  -32.2420 C.ar  288  PHE288     -0.0203
    105  CD1       14.0190   -0.5820  -33.3870 C.ar  288  PHE288     -0.0042
    106  CD2       12.6590   -0.9800  -31.4690 C.ar  288  PHE288     -0.0042
    107  CE1       13.2000    0.4540  -33.7610 C.ar  288  PHE288     -0.0003
    108  CE2       11.8370    0.0710  -31.8420 C.ar  288  PHE288     -0.0003
    109  CZ        12.1120    0.7860  -32.9980 C.ar  288  PHE288     -0.0000
    110  N         18.2410   -3.6840  -37.6210 N.3   290  PHE290     -0.1241
    111  CA        17.9270   -4.0970  -38.9960 C.3   290  PHE290      0.1605
    112  C         19.1980   -3.9780  -39.8470 C.2   290  PHE290      0.2264
    113  O         19.9600   -3.0060  -39.7250 O.2   290  PHE290     -0.2867
    114  CB        16.7830   -3.2390  -39.5430 C.3   290  PHE290      0.0534
    115  CG        15.7160   -2.9370  -38.5180 C.ar  290  PHE290     -0.0203
    116  CD1       14.8550   -3.9350  -38.0770 C.ar  290  PHE290     -0.0042
    117  CD2       15.5870   -1.6680  -37.9790 C.ar  290  PHE290     -0.0042
    118  CE1       13.8780   -3.6670  -37.1170 C.ar  290  PHE290     -0.0003
    119  CE2       14.6150   -1.3890  -37.0180 C.ar  290  PHE290     -0.0003
    120  CZ        13.7620   -2.3870  -36.5890 C.ar  290  PHE290     -0.0000
    121  N          6.1320   -4.6240  -28.6880 N.3   330  TYR330     -0.1227
    122  CA         6.1420   -5.3740  -29.9510 C.3   330  TYR330      0.1736
    123  C          7.4240   -6.1660  -30.1970 C.2   330  TYR330      0.2595
    124  O          7.3690   -7.3060  -30.6580 O.2   330  TYR330     -0.2718
    125  CB         5.9230   -4.4120  -31.1290 C.3   330  TYR330      0.0548
    126  CG         5.5840   -5.0660  -32.4440 C.ar  330  TYR330     -0.0200
    127  CD1        4.2630   -5.3380  -32.7670 C.ar  330  TYR330     -0.0009
    128  CD2        6.5660   -5.3950  -33.3730 C.ar  330  TYR330     -0.0009
    129  CE1        3.9170   -5.9310  -33.9730 C.ar  330  TYR330      0.0417
    130  CE2        6.2260   -6.0000  -34.6010 C.ar  330  TYR330      0.0417
    131  CZ         4.8920   -6.2560  -34.8840 C.ar  330  TYR330      0.1957
    132  OH         4.4830   -6.8440  -36.0760 O.3   330  TYR330     -0.2866
    133  N          8.5700   -5.5550  -29.9040 N.am  331  PHE331     -0.1976
    134  CA         9.8630   -6.1020  -30.3210 C.3   331  PHE331      0.1639
    135  C         10.3950   -7.1820  -29.3910 C.2   331  PHE331      0.2290
    136  O         11.2930   -7.9330  -29.7630 O.2   331  PHE331     -0.2864
    137  CB        10.8930   -4.9730  -30.4480 C.3   331  PHE331      0.0560
    138  CG        10.4820   -3.9100  -31.4210 C.ar  331  PHE331     -0.0200
    139  CD1        9.7310   -2.8160  -30.9990 C.ar  331  PHE331     -0.0042
    140  CD2       10.7970   -4.0280  -32.7640 C.ar  331  PHE331     -0.0042
    141  CE1        9.3160   -1.8510  -31.9070 C.ar  331  PHE331     -0.0003
    142  CE2       10.3970   -3.0520  -33.6800 C.ar  331  PHE331     -0.0003
    143  CZ         9.6580   -1.9760  -33.2520 C.ar  331  PHE331     -0.0000
    144  N          3.6860   -0.2270  -30.7070 N.3   440  HIS440     -0.1226
    145  CA         4.2620    0.4850  -31.8440 C.3   440  HIS440      0.1752
    146  C          3.4840    0.1490  -33.1160 C.2   440  HIS440      0.2596
    147  O          3.3190   -1.0270  -33.4600 O.2   440  HIS440     -0.2718
    148  CB         5.7250    0.0310  -31.9500 C.3   440  HIS440      0.0759
    149  CG         6.5250    0.6980  -33.0260 C.ar  440  HIS440      0.0818
    150  ND1        7.0860    1.9470  -32.8700 N.ar  440  HIS440     -0.2268
    151  CD2        6.9330    0.2500  -34.2390 C.ar  440  HIS440      0.1154
    152  CE1        7.7680    2.2580  -33.9570 C.ar  440  HIS440      0.1986
    153  NE2        7.6840    1.2490  -34.8070 N.ar  440  HIS440     -0.2212
    154  N          2.9790    1.1730  -33.7960 N.am  441  GLY441     -0.1957
    155  CA         2.2370    0.9780  -35.0380 C.3   441  GLY441      0.1869
    156  C          0.7260    1.0640  -34.9490 C.2   441  GLY441      0.2309
    157  O          0.0740    1.2270  -35.9770 O.2   441  GLY441     -0.2863
@<TRIPOS>BOND
     1    45    46    1
     2    56    55    2
     3    46    47    1
     4    46    49    1
     5    48    47    2
     6    55    54    1
     7    52    50    1
     8    57    54    1
     9    57    58    1
    10    50    49    1
    11    50    51    1
    12    30    29    2
    13    60    58   ar
    14    60    62   ar
    15    41    40    1
    16    41    42    2
    17    54    53    1
    18    40    39    1
    19    40    43    1
    20    29    39   am
    21    29    28    1
    22    58    59   ar
    23    62    63   ar
    24    28    27    1
    25    28    31    1
    26    43    44    1
    27    59    61   ar
    28     4     3    2
    29    31    32    1
    30    63    61   ar
    31    63    64    1
    32    18    17    2
    33     3     2    1
    34    15    16    1
    35    33    32   ar
    36    33    35   ar
    37    32    34   ar
    38    83    82    2
    39    17    16    1
    40    17    19   am
    41    22    21    2
    42     2     1    1
    43     2     5    1
    44    82    81    1
    45    35    37   ar
    46    25    26    2
    47    25    24    1
    48    20    21    1
    49    20    19    1
    50    21    23   am
    51    84    81    1
    52    34    36   ar
    53     5     6    1
    54    23    24    1
    55    81    80    1
    56    65    66    1
    57    37    36   ar
    58    37    38    1
    59    11    13   ar
    60    11     8   ar
    61    68    67    2
    62   112   113    2
    63   112   111    1
    64    13    14   ar
    65   114   111    1
    66   114   115    1
    67    80    76   am
    68     6     8   ar
    69     6     7   ar
    70     8    10   ar
    71    66    67    1
    72    66    69    1
    73   111   110    1
    74    67    74   am
    75    77    76    2
    76    69    70    1
    77    76    75    1
    78   115   116   ar
    79   115   117   ar
    80    14    12   ar
    81     7     9   ar
    82    72    71   ar
    83   116   118   ar
    84    10    12   ar
    85    10     9   ar
    86   117   119   ar
    87    88    87    2
    88    97    95   ar
    89    97    98   ar
    90    74    75    1
    91    78    75    1
    92    78    79    1
    93    95    92   ar
    94    70    71    1
    95    98    96   ar
    96    71    73   ar
    97   118   120   ar
    98   119   120   ar
    99    87    86    1
   100   132   131    1
   101   157   156    2
   102    92    94   ar
   103    92    90   ar
   104    96    94   ar
   105    86    89    1
   106    86    85    1
   107    94    93   ar
   108    89    90    1
   109   155   156    1
   110   155   154    1
   111    90    91   ar
   112   131   130   ar
   113   131   129   ar
   114   153   151   ar
   115   153   152   ar
   116   130   128   ar
   117   151   149   ar
   118   129   127   ar
   119   152   150   ar
   120    93    91   ar
   121   154   146   am
   122   107   105   ar
   123   107   109   ar
   124   142   143   ar
   125   142   140   ar
   126   101   102    2
   127   101   100    1
   128   147   146    2
   129   105   104   ar
   130   128   126   ar
   131   143   141   ar
   132   146   145    1
   133   149   150   ar
   134   149   148    1
   135   109   108   ar
   136   100    99    1
   137   100   103    1
   138   127   126   ar
   139   140   138   ar
   140   126   125    1
   141   104   103    1
   142   104   106   ar
   143   148   145    1
   144   141   139   ar
   145   145   144    1
   146   108   106   ar
   147   138   139   ar
   148   138   137    1
   149   125   122    1
   150   124   123    2
   151   137   134    1
   152   134   133    1
   153   134   135    1
   154   123   122    1
   155   123   133   am
   156   122   121    1
   157   136   135    2
