@<TRIPOS>MOLECULE
tmp/2ha0B03.pdb
 122 123 0 0 0
SMALL
GASTEIGER

@<TRIPOS>ATOM
      1  N         11.5280   -9.9970  -46.6880 N.3    69  TYR69      -0.1241
      2  CA        11.2600  -11.0290  -45.6900 C.3    69  TYR69       0.1605
      3  C          9.7840  -11.0270  -45.2840 C.2    69  TYR69       0.2264
      4  O          9.1910   -9.9680  -45.0450 O.2    69  TYR69      -0.2867
      5  CB        12.1430  -10.7640  -44.4650 C.3    69  TYR69       0.0534
      6  CG        11.8960  -11.6700  -43.2760 C.ar   69  TYR69      -0.0201
      7  CD1       11.1320  -11.2300  -42.1940 C.ar   69  TYR69      -0.0009
      8  CD2       12.4210  -12.9630  -43.2300 C.ar   69  TYR69      -0.0009
      9  CE1       10.8970  -12.0440  -41.0960 C.ar   69  TYR69       0.0417
     10  CE2       12.1880  -13.7900  -42.1300 C.ar   69  TYR69       0.0417
     11  CZ        11.4290  -13.3170  -41.0690 C.ar   69  TYR69       0.1957
     12  OH        11.1850  -14.1080  -39.9770 O.3    69  TYR69      -0.2866
     13  N          7.1290  -12.3590  -42.4040 N.3    71  ASP71      -0.1239
     14  CA         7.1480  -12.7770  -41.0070 C.3    71  ASP71       0.1674
     15  C          6.5770  -14.1790  -40.8110 C.2    71  ASP71       0.2266
     16  O          5.5590  -14.5380  -41.4040 O.2    71  ASP71      -0.2867
     17  CB         6.3740  -11.8010  -40.1310 C.3    71  ASP71       0.1410
     18  CG         6.7830  -11.8900  -38.6830 C.2    71  ASP71       0.3668
     19  OD1        6.0900  -12.5820  -37.9070 O.co2  71  ASP71      -0.2456
     20  OD2        7.8250  -11.2910  -38.3410 O.co2  71  ASP71      -0.2456
     21  N          6.8400  -15.5280  -37.3090 N.3    73  LEU73      -0.1245
     22  CA         6.8870  -15.7120  -35.8510 C.3    73  LEU73       0.1561
     23  C          5.6290  -16.4270  -35.3670 C.2    73  LEU73       0.2260
     24  O          5.7170  -17.4080  -34.6320 O.2    73  LEU73      -0.2867
     25  CB         7.0640  -14.3750  -35.1220 C.3    73  LEU73       0.0270
     26  CG         7.2110  -14.4190  -33.5860 C.3    73  LEU73       0.0019
     27  CD1        8.4830  -15.1610  -33.1740 C.3    73  LEU73       0.0001
     28  CD2        7.1880  -13.0130  -32.9900 C.3    73  LEU73       0.0001
     29  N         13.3740   -3.0450  -43.8490 N.3   121  TYR121     -0.1241
     30  CA        13.4550   -4.4020  -44.4060 C.3   121  TYR121      0.1605
     31  C         12.0840   -4.9100  -44.9190 C.2   121  TYR121      0.2264
     32  O         11.9980   -6.0060  -45.4940 O.2   121  TYR121     -0.2867
     33  CB        14.0550   -5.3960  -43.3680 C.3   121  TYR121      0.0534
     34  CG        13.0910   -5.7920  -42.2720 C.ar  121  TYR121     -0.0201
     35  CD1       12.1620   -6.8030  -42.4730 C.ar  121  TYR121     -0.0009
     36  CD2       13.0850   -5.1360  -41.0530 C.ar  121  TYR121     -0.0009
     37  CE1       11.2520   -7.1590  -41.4910 C.ar  121  TYR121      0.0417
     38  CE2       12.1680   -5.4740  -40.0600 C.ar  121  TYR121      0.0417
     39  CZ        11.2520   -6.5000  -40.2900 C.ar  121  TYR121      0.1957
     40  OH        10.3360   -6.8630  -39.3150 O.3   121  TYR121     -0.2866
     41  N         19.4410  -11.5330  -42.2470 N.3   279  TRP279     -0.1241
     42  CA        19.5290  -11.3550  -40.7930 C.3   279  TRP279      0.1605
     43  C         20.8670  -11.8010  -40.1860 C.2   279  TRP279      0.2264
     44  O         21.2120  -11.3960  -39.0720 O.2   279  TRP279     -0.2867
     45  CB        18.3740  -12.0890  -40.1160 C.3   279  TRP279      0.0550
     46  CG        17.0540  -11.4780  -40.4440 C.ar  279  TRP279      0.0003
     47  CD1       16.1080  -11.9630  -41.3050 C.ar  279  TRP279      0.0946
     48  CD2       16.5430  -10.2410  -39.9400 C.ar  279  TRP279      0.0152
     49  NE1       15.0330  -11.1070  -41.3550 N.ar  279  TRP279     -0.2442
     50  CE2       15.2740  -10.0430  -40.5260 C.ar  279  TRP279      0.0810
     51  CE3       17.0340   -9.2800  -39.0410 C.ar  279  TRP279      0.0012
     52  CZ2       14.4840   -8.9290  -40.2360 C.ar  279  TRP279      0.0191
     53  CZ3       16.2440   -8.1710  -38.7540 C.ar  279  TRP279      0.0001
     54  CH2       14.9850   -8.0060  -39.3530 C.ar  279  TRP279      0.0015
     55  N         15.1200   -4.7970  -32.4430 N.3   288  PHE288     -0.1227
     56  CA        15.0330   -3.4370  -32.9570 C.3   288  PHE288      0.1736
     57  C         16.3390   -3.0390  -33.6430 C.2   288  PHE288      0.2595
     58  O         16.7990   -1.8990  -33.5120 O.2   288  PHE288     -0.2718
     59  CB        14.6650   -2.4680  -31.8200 C.3   288  PHE288      0.0547
     60  CG        13.7620   -1.3250  -32.2420 C.ar  288  PHE288     -0.0202
     61  CD1       14.0190   -0.5820  -33.3870 C.ar  288  PHE288     -0.0042
     62  CD2       12.6590   -0.9800  -31.4690 C.ar  288  PHE288     -0.0042
     63  CE1       13.2000    0.4540  -33.7610 C.ar  288  PHE288     -0.0003
     64  CE2       11.8370    0.0710  -31.8420 C.ar  288  PHE288     -0.0003
     65  CZ        12.1120    0.7860  -32.9980 C.ar  288  PHE288     -0.0000
     66  N         16.9490   -3.9990  -34.3450 N.am  289  ARG289     -0.1966
     67  CA        18.0830   -3.7280  -35.2090 C.3   289  ARG289      0.1729
     68  C         17.8620   -4.3890  -36.5610 C.2   289  ARG289      0.2616
     69  O         17.3490   -5.5080  -36.6430 O.2   289  ARG289     -0.2715
     70  CB        19.3690   -4.2320  -34.5810 C.3   289  ARG289      0.0348
     71  CG        19.7810   -3.4520  -33.3570 C.3   289  ARG289      0.0492
     72  CD        20.2260   -2.0570  -33.6870 C.3   289  ARG289      0.2205
     73  NE        20.8130   -1.4580  -32.5100 N.pl3 289  ARG289     -0.0865
     74  CZ        20.1260   -0.8870  -31.5250 C.cat 289  ARG289      0.5346
     75  NH1       20.7780   -0.3940  -30.4760 N.pl3 289  ARG289      0.1354
     76  NH2       18.8070   -0.7650  -31.5830 N.pl3 289  ARG289      0.1354
     77  N         18.2410   -3.6840  -37.6210 N.am  290  PHE290     -0.1974
     78  CA        17.9270   -4.0970  -38.9960 C.3   290  PHE290      0.1639
     79  C         19.1980   -3.9780  -39.8470 C.2   290  PHE290      0.2290
     80  O         19.9600   -3.0060  -39.7250 O.2   290  PHE290     -0.2864
     81  CB        16.7830   -3.2390  -39.5430 C.3   290  PHE290      0.0560
     82  CG        15.7160   -2.9370  -38.5180 C.ar  290  PHE290     -0.0200
     83  CD1       14.8550   -3.9350  -38.0770 C.ar  290  PHE290     -0.0042
     84  CD2       15.5870   -1.6680  -37.9790 C.ar  290  PHE290     -0.0042
     85  CE1       13.8780   -3.6670  -37.1170 C.ar  290  PHE290     -0.0003
     86  CE2       14.6150   -1.3890  -37.0180 C.ar  290  PHE290     -0.0003
     87  CZ        13.7620   -2.3870  -36.5890 C.ar  290  PHE290     -0.0000
     88  N          6.1320   -4.6240  -28.6880 N.3   330  TYR330     -0.1227
     89  CA         6.1420   -5.3740  -29.9510 C.3   330  TYR330      0.1736
     90  C          7.4240   -6.1660  -30.1970 C.2   330  TYR330      0.2595
     91  O          7.3690   -7.3060  -30.6580 O.2   330  TYR330     -0.2718
     92  CB         5.9230   -4.4120  -31.1290 C.3   330  TYR330      0.0548
     93  CG         5.5840   -5.0660  -32.4440 C.ar  330  TYR330     -0.0200
     94  CD1        4.2630   -5.3380  -32.7670 C.ar  330  TYR330     -0.0009
     95  CD2        6.5660   -5.3950  -33.3730 C.ar  330  TYR330     -0.0009
     96  CE1        3.9170   -5.9310  -33.9730 C.ar  330  TYR330      0.0417
     97  CE2        6.2260   -6.0000  -34.6010 C.ar  330  TYR330      0.0417
     98  CZ         4.8920   -6.2560  -34.8840 C.ar  330  TYR330      0.1957
     99  OH         4.4830   -6.8440  -36.0760 O.3   330  TYR330     -0.2866
    100  N          8.5700   -5.5550  -29.9040 N.am  331  PHE331     -0.1976
    101  CA         9.8630   -6.1020  -30.3210 C.3   331  PHE331      0.1639
    102  C         10.3950   -7.1820  -29.3910 C.2   331  PHE331      0.2290
    103  O         11.2930   -7.9330  -29.7630 O.2   331  PHE331     -0.2864
    104  CB        10.8930   -4.9730  -30.4480 C.3   331  PHE331      0.0560
    105  CG        10.4820   -3.9100  -31.4210 C.ar  331  PHE331     -0.0200
    106  CD1        9.7310   -2.8160  -30.9990 C.ar  331  PHE331     -0.0042
    107  CD2       10.7970   -4.0280  -32.7640 C.ar  331  PHE331     -0.0042
    108  CE1        9.3160   -1.8510  -31.9070 C.ar  331  PHE331     -0.0003
    109  CE2       10.3970   -3.0520  -33.6800 C.ar  331  PHE331     -0.0003
    110  CZ         9.6580   -1.9760  -33.2520 C.ar  331  PHE331     -0.0000
    111  N         10.2010  -11.0040  -30.3190 N.3   334  TYR334     -0.1241
    112  CA        11.0370  -11.3870  -31.4490 C.3   334  TYR334      0.1605
    113  C         12.4730  -11.7200  -31.0580 C.2   334  TYR334      0.2264
    114  O         13.3410  -11.8140  -31.9180 O.2   334  TYR334     -0.2867
    115  CB        11.0750  -10.2400  -32.4670 C.3   334  TYR334      0.0534
    116  CG         9.8560  -10.1450  -33.3460 C.ar  334  TYR334     -0.0201
    117  CD1        8.8200   -9.2660  -33.0520 C.ar  334  TYR334     -0.0009
    118  CD2        9.7450  -10.9330  -34.4810 C.ar  334  TYR334     -0.0009
    119  CE1        7.7000   -9.1810  -33.8700 C.ar  334  TYR334      0.0417
    120  CE2        8.6400  -10.8580  -35.3000 C.ar  334  TYR334      0.0417
    121  CZ         7.6210   -9.9820  -34.9960 C.ar  334  TYR334      0.1957
    122  OH         6.5330   -9.9230  -35.8280 O.3   334  TYR334     -0.2866
@<TRIPOS>BOND
     1     1     2    1
     2     2     3    1
     3     2     5    1
     4    32    31    2
     5     3     4    2
     6    31    30    1
     7     5     6    1
     8    30    29    1
     9    30    33    1
    10    33    34    1
    11     6     8   ar
    12     6     7   ar
    13     8    10   ar
    14    35    34   ar
    15    35    37   ar
    16    13    14    1
    17    34    36   ar
    18    41    42    1
    19     7     9   ar
    20    10    11   ar
    21    37    39   ar
    22    16    15    2
    23    49    47   ar
    24    49    50   ar
    25    47    46   ar
    26     9    11   ar
    27    11    12    1
    28    36    38   ar
    29    14    15    1
    30    14    17    1
    31    42    43    1
    32    42    45    1
    33    50    52   ar
    34    50    48   ar
    35    46    45    1
    36    46    48   ar
    37    39    38   ar
    38    39    40    1
    39    52    54   ar
    40    43    44    2
    41    17    18    1
    42    48    51   ar
    43    79    80    2
    44    79    78    1
    45    81    78    1
    46    81    82    1
    47    54    53   ar
    48    51    53   ar
    49    78    77    1
    50    18    20   ar
    51    18    19   ar
    52    82    83   ar
    53    82    84   ar
    54    83    85   ar
    55    84    86   ar
    56    77    68   am
    57    21    22    1
    58    85    87   ar
    59    86    87   ar
    60    69    68    2
    61    68    67    1
    62    99    98    1
    63    22    23    1
    64    22    25    1
    65   122   121    1
    66    23    24    2
    67   120   121   ar
    68   120   118   ar
    69    67    70    1
    70    67    66    1
    71    25    26    1
    72   121   119   ar
    73    98    97   ar
    74    98    96   ar
    75    97    95   ar
    76    70    71    1
    77   118   116   ar
    78    66    57   am
    79    96    94   ar
    80   119   117   ar
    81    63    61   ar
    82    63    65   ar
    83    72    71    1
    84    72    73    1
    85   109   110   ar
    86   109   107   ar
    87    57    58    2
    88    57    56    1
    89    26    27    1
    90    26    28    1
    91    61    60   ar
    92    95    93   ar
    93   116   117   ar
    94   116   115    1
    95   110   108   ar
    96    65    64   ar
    97    56    55    1
    98    56    59    1
    99    94    93   ar
   100   107   105   ar
   101    73    74    2
   102   115   112    1
   103    93    92    1
   104    60    59    1
   105    60    62   ar
   106   114   113    2
   107   108   106   ar
   108    64    62   ar
   109    76    74    1
   110    74    75    1
   111   112   113    1
   112   112   111    1
   113   105   106   ar
   114   105   104    1
   115    92    89    1
   116    91    90    2
   117   104   101    1
   118   101   100    1
   119   101   102    1
   120    90    89    1
   121    90   100   am
   122    89    88    1
   123   103   102    2
