@<TRIPOS>MOLECULE
tmp/2ha2B02.pdb
 157 157 0 0 0
SMALL
GASTEIGER

@<TRIPOS>ATOM
      1  N          0.9070   -6.7180  -41.4080 N.3    83  TRP83      -0.1241
      2  CA         2.0820   -5.9920  -41.8890 C.3    83  TRP83       0.1605
      3  C          2.8260   -6.7010  -43.0260 C.2    83  TRP83       0.2264
      4  O          3.7700   -6.1420  -43.5930 O.2    83  TRP83      -0.2867
      5  CB         3.0590   -5.7850  -40.7430 C.3    83  TRP83       0.0550
      6  CG         2.4590   -5.1940  -39.5390 C.ar   83  TRP83       0.0003
      7  CD1        2.2050   -5.8280  -38.3720 C.ar   83  TRP83       0.0946
      8  CD2        2.0440   -3.8370  -39.3650 C.ar   83  TRP83       0.0152
      9  NE1        1.6490   -4.9550  -37.4770 N.ar   83  TRP83      -0.2442
     10  CE2        1.5320   -3.7240  -38.0620 C.ar   83  TRP83       0.0810
     11  CE3        2.0400   -2.7100  -40.1900 C.ar   83  TRP83       0.0012
     12  CZ2        1.0430   -2.5140  -37.5450 C.ar   83  TRP83       0.0191
     13  CZ3        1.5340   -1.5110  -39.6820 C.ar   83  TRP83       0.0001
     14  CH2        1.0360   -1.4330  -38.3770 C.ar   83  TRP83       0.0015
     15  N          6.8770    2.4160  -42.9060 N.3   117  GLY117     -0.1210
     16  CA         7.9590    1.8250  -42.1320 C.3   117  GLY117      0.1956
     17  C          8.0180    0.3310  -42.3240 C.2   117  GLY117      0.2612
     18  O          7.3200   -0.2250  -43.1680 O.2   117  GLY117     -0.2717
     19  N          8.8480   -0.3150  -41.5130 N.am  118  GLY118     -0.1942
     20  CA         9.1750   -1.7210  -41.6710 C.3   118  GLY118      0.2014
     21  C         10.6540   -2.0270  -41.5780 C.2   118  GLY118      0.2639
     22  O         11.1180   -3.0070  -42.1510 O.2   118  GLY118     -0.2714
     23  N         11.3990   -1.1950  -40.8610 N.am  119  GLY119     -0.1954
     24  CA        12.8220   -1.4480  -40.5910 C.3   119  GLY119      0.1869
     25  C         13.7650   -1.2370  -41.7610 C.2   119  GLY119      0.2309
     26  O         14.9260   -1.6320  -41.6930 O.2   119  GLY119     -0.2863
     27  N         13.5590   -2.9910  -44.2260 N.3   121  TYR121     -0.1227
     28  CA        13.6700   -4.3260  -44.8100 C.3   121  TYR121      0.1736
     29  C         12.3100   -4.8750  -45.3140 C.2   121  TYR121      0.2596
     30  O         12.2560   -5.9580  -45.9220 O.2   121  TYR121     -0.2718
     31  CB        14.3080   -5.3090  -43.7980 C.3   121  TYR121      0.0548
     32  CG        13.3720   -5.7120  -42.6740 C.ar  121  TYR121     -0.0200
     33  CD1       12.4970   -6.7910  -42.8160 C.ar  121  TYR121     -0.0009
     34  CD2       13.3420   -4.9990  -41.4850 C.ar  121  TYR121     -0.0009
     35  CE1       11.6250   -7.1360  -41.8040 C.ar  121  TYR121      0.0417
     36  CE2       12.4810   -5.3450  -40.4630 C.ar  121  TYR121      0.0417
     37  CZ        11.6140   -6.4080  -40.6310 C.ar  121  TYR121      0.1957
     38  OH        10.7430   -6.7280  -39.6030 O.3   121  TYR121     -0.2866
     39  N         11.2240   -4.1280  -45.0720 N.am  122  SER122     -0.1952
     40  CA         9.8740   -4.5850  -45.3600 C.3   122  SER122      0.1924
     41  C          8.9380   -3.4090  -45.4950 C.2   122  SER122      0.2314
     42  O          9.3440   -2.2580  -45.3280 O.2   122  SER122     -0.2863
     43  CB         9.3740   -5.4850  -44.2380 C.3   122  SER122      0.2116
     44  OG         9.3070   -4.7610  -43.0370 O.3   122  SER122     -0.2180
     45  N         -0.8140   -1.9250  -47.9480 N.3   127  LEU127     -0.1245
     46  CA        -1.3500   -2.5130  -46.7260 C.3   127  LEU127      0.1561
     47  C         -2.6410   -1.7760  -46.3550 C.2   127  LEU127      0.2260
     48  O         -2.7600   -0.5840  -46.5900 O.2   127  LEU127     -0.2867
     49  CB        -0.3470   -2.4340  -45.5780 C.3   127  LEU127      0.0270
     50  CG         1.0460   -3.0590  -45.7380 C.3   127  LEU127      0.0019
     51  CD1        1.7860   -2.9590  -44.4350 C.3   127  LEU127      0.0001
     52  CD2        0.9530   -4.5020  -46.2190 C.3   127  LEU127      0.0001
     53  N         -2.8820    1.6330  -44.5300 N.3   130  TYR130     -0.1241
     54  CA        -2.3880    2.8270  -45.2370 C.3   130  TYR130      0.1605
     55  C         -3.3730    3.3240  -46.3030 C.2   130  TYR130      0.2264
     56  O         -3.0160    4.0810  -47.1930 O.2   130  TYR130     -0.2867
     57  CB        -1.0220    2.5710  -45.8820 C.3   130  TYR130      0.0534
     58  CG         0.0400    1.9910  -44.9760 C.ar  130  TYR130     -0.0201
     59  CD1        0.1810    2.4080  -43.6610 C.ar  130  TYR130     -0.0009
     60  CD2        0.9500    1.0710  -45.4600 C.ar  130  TYR130     -0.0009
     61  CE1        1.1720    1.8820  -42.8470 C.ar  130  TYR130      0.0417
     62  CE2        1.9310    0.5280  -44.6490 C.ar  130  TYR130      0.0417
     63  CZ         2.0390    0.9300  -43.3490 C.ar  130  TYR130      0.1957
     64  OH         3.0320    0.3970  -42.5530 O.3   130  TYR130     -0.2866
     65  N          5.8860    6.4680  -40.4050 N.3   199  GLU199     -0.1231
     66  CA         6.0290    5.8390  -39.1180 C.3   199  GLU199      0.1699
     67  C          7.2350    4.8790  -39.1010 C.2   199  GLU199      0.2593
     68  O          7.5160    4.2050  -40.0850 O.2   199  GLU199     -0.2718
     69  CB         4.7410    5.1070  -38.7760 C.3   199  GLU199      0.0402
     70  CG         4.6600    4.5510  -37.3640 C.3   199  GLU199      0.1161
     71  CD         5.2240    3.1440  -37.2270 C.2   199  GLU199      0.3649
     72  OE1        5.5070    2.4880  -38.2480 O.co2 199  GLU199     -0.2457
     73  OE2        5.3810    2.6930  -36.0810 O.co2 199  GLU199     -0.2457
     74  N          7.9400    4.8530  -37.9760 N.am  200  SER200     -0.1938
     75  CA         9.1340    3.9950  -37.7740 C.3   200  SER200      0.2055
     76  C         10.2050    4.3210  -38.8220 C.2   200  SER200      0.2642
     77  O         10.6450    5.4750  -38.8850 O.2   200  SER200     -0.2714
     78  CB         8.7350    2.5110  -37.7330 C.3   200  SER200      0.2130
     79  OG         9.8210    1.6630  -37.2820 O.3   200  SER200     -0.2179
     80  N         10.6030    3.3550  -39.6540 N.am  201  ALA201     -0.1977
     81  CA        11.6030    3.5980  -40.7040 C.3   201  ALA201      0.1597
     82  C         11.1160    4.6300  -41.7160 C.2   201  ALA201      0.2287
     83  O         11.9250    5.3030  -42.3610 O.2   201  ALA201     -0.2864
     84  CB        12.0000    2.2890  -41.4190 C.3   201  ALA201      0.0319
     85  N         19.5930    2.7300  -34.8260 N.3   233  TRP233     -0.1241
     86  CA        19.2270    1.7210  -35.8340 C.3   233  TRP233      0.1605
     87  C         19.0150    2.2500  -37.2630 C.2   233  TRP233      0.2264
     88  O         19.0870    1.4710  -38.2280 O.2   233  TRP233     -0.2867
     89  CB        17.9650    0.9810  -35.3870 C.3   233  TRP233      0.0550
     90  CG        16.8350    1.8990  -35.1410 C.ar  233  TRP233      0.0003
     91  CD1       16.5100    2.4810  -33.9600 C.ar  233  TRP233      0.0946
     92  CD2       15.8910    2.3820  -36.0980 C.ar  233  TRP233      0.0152
     93  NE1       15.4180    3.2980  -34.1090 N.ar  233  TRP233     -0.2442
     94  CE2       15.0150    3.2580  -35.4150 C.ar  233  TRP233      0.0810
     95  CE3       15.6990    2.1700  -37.4670 C.ar  233  TRP233      0.0012
     96  CZ2       13.9560    3.9050  -36.0460 C.ar  233  TRP233      0.0191
     97  CZ3       14.6380    2.8240  -38.0970 C.ar  233  TRP233      0.0001
     98  CH2       13.7890    3.6820  -37.3830 C.ar  233  TRP233      0.0015
     99  N         15.4800   -4.7900  -32.6640 N.3   286  PHE286     -0.1241
    100  CA        15.3610   -3.4020  -33.1570 C.3   286  PHE286      0.1605
    101  C         16.6400   -3.0240  -33.8910 C.2   286  PHE286      0.2264
    102  O         17.1870   -1.9270  -33.7270 O.2   286  PHE286     -0.2867
    103  CB        15.0380   -2.4210  -32.0180 C.3   286  PHE286      0.0534
    104  CG        14.0890   -1.2920  -32.4210 C.ar  286  PHE286     -0.0203
    105  CD1       14.3270   -0.5190  -33.5430 C.ar  286  PHE286     -0.0042
    106  CD2       12.9600   -1.0170  -31.6700 C.ar  286  PHE286     -0.0042
    107  CE1       13.4580    0.4830  -33.9040 C.ar  286  PHE286     -0.0003
    108  CE2       12.0980   -0.0050  -32.0350 C.ar  286  PHE286     -0.0003
    109  CZ        12.3480    0.7450  -33.1550 C.ar  286  PHE286     -0.0000
    110  N         18.5210   -3.6920  -37.8950 N.3   288  PHE288     -0.1241
    111  CA        18.1860   -4.0620  -39.2650 C.3   288  PHE288      0.1605
    112  C         19.4430   -3.9990  -40.1230 C.2   288  PHE288      0.2264
    113  O         20.1930   -3.0180  -40.0700 O.2   288  PHE288     -0.2867
    114  CB        17.0900   -3.1330  -39.7890 C.3   288  PHE288      0.0534
    115  CG        16.0120   -2.8490  -38.7750 C.ar  288  PHE288     -0.0203
    116  CD1       15.1640   -3.8600  -38.3420 C.ar  288  PHE288     -0.0042
    117  CD2       15.8560   -1.5800  -38.2330 C.ar  288  PHE288     -0.0042
    118  CE1       14.1710   -3.6010  -37.3880 C.ar  288  PHE288     -0.0003
    119  CE2       14.8820   -1.3210  -37.2830 C.ar  288  PHE288     -0.0003
    120  CZ        14.0390   -2.3410  -36.8640 C.ar  288  PHE288     -0.0000
    121  N          6.4480   -4.7610  -28.6650 N.3   328  TYR328     -0.1227
    122  CA         6.3720   -5.5590  -29.8960 C.3   328  TYR328      0.1736
    123  C          7.6540   -6.3250  -30.1680 C.2   328  TYR328      0.2595
    124  O          7.6180   -7.4810  -30.5600 O.2   328  TYR328     -0.2718
    125  CB         6.1120   -4.6250  -31.0920 C.3   328  TYR328      0.0548
    126  CG         5.5510   -5.2820  -32.3250 C.ar  328  TYR328     -0.0200
    127  CD1        4.2370   -5.0360  -32.7180 C.ar  328  TYR328     -0.0009
    128  CD2        6.3230   -6.1360  -33.1080 C.ar  328  TYR328     -0.0009
    129  CE1        3.7040   -5.6260  -33.8650 C.ar  328  TYR328      0.0417
    130  CE2        5.7900   -6.7390  -34.2510 C.ar  328  TYR328      0.0417
    131  CZ         4.4750   -6.4760  -34.6210 C.ar  328  TYR328      0.1957
    132  OH         3.9220   -7.0580  -35.7520 O.3   328  TYR328     -0.2866
    133  N          8.7850   -5.6590  -29.9730 N.am  329  PHE329     -0.1976
    134  CA        10.0890   -6.1910  -30.3720 C.3   329  PHE329      0.1639
    135  C         10.6430   -7.2800  -29.4680 C.2   329  PHE329      0.2290
    136  O         11.6100   -7.9340  -29.8260 O.2   329  PHE329     -0.2864
    137  CB        11.1000   -5.0490  -30.4630 C.3   329  PHE329      0.0560
    138  CG        10.7700   -4.0740  -31.5310 C.ar  329  PHE329     -0.0200
    139  CD1        9.9310   -3.0110  -31.2730 C.ar  329  PHE329     -0.0042
    140  CD2       11.2440   -4.2580  -32.8180 C.ar  329  PHE329     -0.0042
    141  CE1        9.6010   -2.1450  -32.2600 C.ar  329  PHE329     -0.0003
    142  CE2       10.9080   -3.3740  -33.8210 C.ar  329  PHE329     -0.0003
    143  CZ        10.1010   -2.3170  -33.5370 C.ar  329  PHE329     -0.0000
    144  N          4.0550   -0.3710  -30.8720 N.3   438  HIS438     -0.1226
    145  CA         4.6100    0.2650  -32.0510 C.3   438  HIS438      0.1752
    146  C          3.7990   -0.0460  -33.3270 C.2   438  HIS438      0.2596
    147  O          3.6600   -1.2050  -33.7250 O.2   438  HIS438     -0.2718
    148  CB         6.0470   -0.2510  -32.1770 C.3   438  HIS438      0.0759
    149  CG         6.8700    0.4150  -33.2320 C.ar  438  HIS438      0.0818
    150  ND1        7.4740    1.6390  -33.0460 N.ar  438  HIS438     -0.2268
    151  CD2        7.2540   -0.0100  -34.4620 C.ar  438  HIS438      0.1154
    152  CE1        8.1580    1.9610  -34.1300 C.ar  438  HIS438      0.1986
    153  NE2        8.0500    0.9730  -35.0000 N.ar  438  HIS438     -0.2212
    154  N          3.2820    0.9960  -33.9720 N.am  439  GLY439     -0.1957
    155  CA         2.5200    0.8540  -35.2030 C.3   439  GLY439      0.1869
    156  C          1.0220    1.0440  -35.0510 C.2   439  GLY439      0.2309
    157  O          0.3370    1.3110  -36.0340 O.2   439  GLY439     -0.2863
@<TRIPOS>BOND
     1    45    46    1
     2    56    55    2
     3    46    47    1
     4    46    49    1
     5    48    47    2
     6    55    54    1
     7    52    50    1
     8    30    29    2
     9    57    54    1
    10    57    58    1
    11    50    49    1
    12    50    51    1
    13    41    40    1
    14    41    42    2
    15    60    58   ar
    16    60    62   ar
    17    40    39    1
    18    40    43    1
    19    29    39   am
    20    29    28    1
    21    54    53    1
    22    58    59   ar
    23    28    27    1
    24    28    31    1
    25    62    63   ar
    26    43    44    1
    27    31    32    1
    28    59    61   ar
    29     4     3    2
    30    63    61   ar
    31    63    64    1
    32    18    17    2
    33     3     2    1
    34    15    16    1
    35    33    32   ar
    36    33    35   ar
    37    32    34   ar
    38    83    82    2
    39    17    16    1
    40    17    19   am
    41    22    21    2
    42     2     1    1
    43     2     5    1
    44    35    37   ar
    45    25    26    2
    46    25    24    1
    47    82    81    1
    48    20    21    1
    49    20    19    1
    50    21    23   am
    51    34    36   ar
    52    84    81    1
    53    23    24    1
    54     5     6    1
    55    81    80    1
    56    37    36   ar
    57    37    38    1
    58    65    66    1
    59    11    13   ar
    60    11     8   ar
    61   112   113    2
    62   112   111    1
    63    68    67    2
    64   114   111    1
    65   114   115    1
    66    13    14   ar
    67    80    76   am
    68     6     8   ar
    69     6     7   ar
    70     8    10   ar
    71   111   110    1
    72    66    67    1
    73    66    69    1
    74    67    74   am
    75    77    76    2
    76    76    75    1
    77    69    70    1
    78   115   116   ar
    79   115   117   ar
    80    14    12   ar
    81     7     9   ar
    82   116   118   ar
    83    72    71   ar
    84   117   119   ar
    85    88    87    2
    86    97    95   ar
    87    97    98   ar
    88    10    12   ar
    89    10     9   ar
    90    74    75    1
    91    75    78    1
    92    78    79    1
    93    95    92   ar
    94   118   120   ar
    95    98    96   ar
    96    70    71    1
    97   119   120   ar
    98    87    86    1
    99    71    73   ar
   100    92    94   ar
   101    92    90   ar
   102    96    94   ar
   103   157   156    2
   104    86    89    1
   105    86    85    1
   106   132   131    1
   107    94    93   ar
   108    89    90    1
   109   155   156    1
   110   155   154    1
   111    90    91   ar
   112   153   151   ar
   113   153   152   ar
   114   131   130   ar
   115   131   129   ar
   116   151   149   ar
   117   130   128   ar
   118   152   150   ar
   119    93    91   ar
   120   154   146   am
   121   107   105   ar
   122   107   109   ar
   123   101   102    2
   124   101   100    1
   125   129   127   ar
   126   142   143   ar
   127   142   140   ar
   128   147   146    2
   129   105   104   ar
   130   143   141   ar
   131   146   145    1
   132   149   150   ar
   133   149   148    1
   134   100    99    1
   135   100   103    1
   136   109   108   ar
   137   128   126   ar
   138   140   138   ar
   139   127   126   ar
   140   104   103    1
   141   104   106   ar
   142   126   125    1
   143   141   139   ar
   144   148   145    1
   145   145   144    1
   146   108   106   ar
   147   138   139   ar
   148   138   137    1
   149   125   122    1
   150   124   123    2
   151   137   134    1
   152   134   133    1
   153   134   135    1
   154   123   133   am
   155   123   122    1
   156   122   121    1
   157   136   135    2
