@<TRIPOS>MOLECULE
tmp/2ha3A02.pdb
 102 100 0 0 0
SMALL
GASTEIGER

@<TRIPOS>ATOM
      1  N         27.1240   25.1780   19.6290 N.3    86  TRP86      -0.1241
      2  CA        27.9870   24.0180   19.4760 C.3    86  TRP86       0.1605
      3  C         29.4280   24.2350   19.9620 C.2    86  TRP86       0.2264
      4  O         30.2000   23.2810   20.0720 O.2    86  TRP86      -0.2867
      5  CB        27.9960   23.5500   18.0190 C.3    86  TRP86       0.0550
      6  CG        26.6310   23.3700   17.4400 C.ar   86  TRP86       0.0003
      7  CD1       26.0670   24.1230   16.4750 C.ar   86  TRP86       0.0946
      8  CD2       25.6660   22.3800   17.7930 C.ar   86  TRP86       0.0152
      9  NE1       24.8020   23.6760   16.1980 N.ar   86  TRP86      -0.2442
     10  CE2       24.5330   22.5980   16.9900 C.ar   86  TRP86       0.0810
     11  CE3       25.6470   21.3310   18.7120 C.ar   86  TRP86       0.0012
     12  CZ2       23.3880   21.8110   17.0760 C.ar   86  TRP86       0.0191
     13  CZ3       24.5100   20.5460   18.8000 C.ar   86  TRP86       0.0001
     14  CH2       23.3980   20.7840   17.9790 C.ar   86  TRP86       0.0015
     15  N         28.7640   14.4590   18.6820 N.3   120  GLY120     -0.1210
     16  CA        29.3170   14.6320   17.3520 C.3   120  GLY120      0.1956
     17  C         30.0770   15.9580   17.2500 C.2   120  GLY120      0.2612
     18  O         30.3260   16.6330   18.2630 O.2   120  GLY120     -0.2717
     19  N         30.4170   16.3470   16.0290 N.am  121  GLY121     -0.1942
     20  CA        31.3510   17.4720   15.7890 C.3   121  GLY121      0.2014
     21  C         32.5240   17.0970   14.8890 C.2   121  GLY121      0.2639
     22  O         33.6190   17.6670   15.0020 O.2   121  GLY121     -0.2714
     23  N         32.2800   16.1360   14.0010 N.am  122  GLY122     -0.1954
     24  CA        33.2000   15.7500   12.9440 C.3   122  GLY122      0.1869
     25  C         34.4970   15.1250   13.3940 C.2   122  GLY122      0.2309
     26  O         35.4550   15.0910   12.6140 O.2   122  GLY122     -0.2863
     27  N         33.3640   19.2550   19.8980 N.3   126  GLY126     -0.1225
     28  CA        32.2730   18.7980   20.7450 C.3   126  GLY126      0.1811
     29  C         32.6210   18.7710   22.2180 C.2   126  GLY126      0.2280
     30  O         33.7830   18.8700   22.6030 O.2   126  GLY126     -0.2866
     31  N         22.8290   18.7680   25.3690 N.3   133  TYR133     -0.1241
     32  CA        23.0660   17.4140   25.8500 C.3   133  TYR133      0.1605
     33  C         22.7580   17.3060   27.3540 C.2   133  TYR133      0.2264
     34  O         23.2290   16.3870   28.0220 O.2   133  TYR133     -0.2867
     35  CB        24.5230   16.9780   25.5930 C.3   133  TYR133      0.0534
     36  CG        25.0600   17.1980   24.1870 C.ar  133  TYR133     -0.0201
     37  CD1       24.2570   16.9930   23.0850 C.ar  133  TYR133     -0.0009
     38  CD2       26.3860   17.5530   23.9690 C.ar  133  TYR133     -0.0009
     39  CE1       24.7290   17.1680   21.8040 C.ar  133  TYR133      0.0417
     40  CE2       26.8760   17.7350   22.6750 C.ar  133  TYR133      0.0417
     41  CZ        26.0240   17.5390   21.5880 C.ar  133  TYR133      0.1957
     42  OH        26.4350   17.6970   20.2820 O.3   133  TYR133     -0.2866
     43  N         24.9910   11.3990   17.7940 N.3   202  GLU202     -0.1231
     44  CA        24.6000   12.0600   16.5750 C.3   202  GLU202      0.1699
     45  C         25.8420   12.4450   15.7830 C.2   202  GLU202      0.2592
     46  O         26.8780   12.7570   16.3590 O.2   202  GLU202     -0.2718
     47  CB        23.7300   13.2740   16.8830 C.3   202  GLU202      0.0402
     48  CG        23.1790   13.9780   15.6440 C.3   202  GLU202      0.1161
     49  CD        24.0370   15.1210   15.1560 C.2   202  GLU202      0.3649
     50  OE1       25.0100   15.4880   15.8570 O.co2 202  GLU202     -0.2457
     51  OE2       23.7230   15.6600   14.0670 O.co2 202  GLU202     -0.2457
     52  N         25.7170   12.3840   14.4600 N.am  203  SER203     -0.1952
     53  CA        26.7840   12.7240   13.5330 C.3   203  SER203      0.1924
     54  C         28.0390   11.8830   13.8080 C.2   203  SER203      0.2314
     55  O         27.9560   10.6590   13.7350 O.2   203  SER203     -0.2863
     56  CB        27.0460   14.2300   13.5590 C.3   203  SER203      0.2116
     57  OG        27.7800   14.5910   12.3920 O.3   203  SER203     -0.2180
     58  N         23.2550   22.5800    6.3750 N.3   332  TYR332     -0.1227
     59  CA        24.2310   23.1210    7.3380 C.3   332  TYR332      0.1736
     60  C         25.6290   23.2850    6.7450 C.2   332  TYR332      0.2595
     61  O         26.3010   24.2960    6.9520 O.2   332  TYR332     -0.2718
     62  CB        24.3070   22.1850    8.5490 C.3   332  TYR332      0.0548
     63  CG        25.1150   22.7020    9.7060 C.ar  332  TYR332     -0.0200
     64  CD1       24.5080   23.4230   10.7250 C.ar  332  TYR332     -0.0009
     65  CD2       26.4850   22.4490    9.8040 C.ar  332  TYR332     -0.0009
     66  CE1       25.2450   23.9100   11.8180 C.ar  332  TYR332      0.0417
     67  CE2       27.2330   22.9410   10.8810 C.ar  332  TYR332      0.0417
     68  CZ        26.5980   23.6700   11.8870 C.ar  332  TYR332      0.1957
     69  OH        27.3050   24.1500   12.9810 O.3   332  TYR332     -0.2866
     70  N         26.0540   22.2780    5.9950 N.am  333  PHE333     -0.1976
     71  CA        27.4200   22.2110    5.5000 C.3   333  PHE333      0.1639
     72  C         27.7110   23.1360    4.3100 C.2   333  PHE333      0.2290
     73  O         28.8890   23.4610    4.0460 O.2   333  PHE333     -0.2864
     74  CB        27.7510   20.7550    5.1790 C.3   333  PHE333      0.0560
     75  CG        27.7070   19.8650    6.3910 C.ar  333  PHE333     -0.0200
     76  CD1       26.5280   19.2380    6.7700 C.ar  333  PHE333     -0.0042
     77  CD2       28.8390   19.6930    7.1800 C.ar  333  PHE333     -0.0042
     78  CE1       26.4820   18.4500    7.9050 C.ar  333  PHE333     -0.0003
     79  CE2       28.8010   18.8900    8.3140 C.ar  333  PHE333     -0.0003
     80  CZ        27.6280   18.2660    8.6730 C.ar  333  PHE333     -0.0000
     81  N         20.9530   19.2330   10.0030 N.3   442  HIS442     -0.1226
     82  CA        21.8060   18.3460   10.7670 C.3   442  HIS442      0.1752
     83  C         21.9770   18.8530   12.1940 C.2   442  HIS442      0.2596
     84  O         22.4740   19.9570   12.3970 O.2   442  HIS442     -0.2718
     85  CB        23.1710   18.3210   10.0430 C.3   442  HIS442      0.0759
     86  CG        24.0990   17.2430   10.4830 C.ar  442  HIS442      0.0818
     87  ND1       23.8500   15.9040   10.2510 N.ar  442  HIS442     -0.2268
     88  CD2       25.3180   17.3050   11.0720 C.ar  442  HIS442      0.1154
     89  CE1       24.8600   15.1860   10.7170 C.ar  442  HIS442      0.1986
     90  NE2       25.7600   16.0110   11.2270 N.ar  442  HIS442     -0.2212
     91  N         21.5470   18.0480   13.1670 N.am  443  GLY443     -0.1957
     92  CA        21.7410   18.3360   14.5870 C.3   443  GLY443      0.1869
     93  C         20.5680   18.9400   15.3420 C.2   443  GLY443      0.2309
     94  O         20.5890   18.9940   16.5710 O.2   443  GLY443     -0.2863
     95  N         18.3470   16.9980   18.2240 N.3   446  ILE446     -0.1245
     96  CA        18.9280   16.6110   19.5160 C.3   446  ILE446      0.1561
     97  C         18.1810   17.2540   20.6880 C.2   446  ILE446      0.2260
     98  O         17.7670   16.5510   21.6270 O.2   446  ILE446     -0.2867
     99  CB        20.4460   16.9440   19.5880 C.3   446  ILE446      0.0252
    100  CG1       21.2070   16.2640   18.4340 C.3   446  ILE446      0.0019
    101  CG2       21.0470   16.5290   20.9630 C.3   446  ILE446      0.0019
    102  CD1       22.6950   16.7030   18.3130 C.3   446  ILE446      0.0001
@<TRIPOS>BOND
     1    73    72    2
     2    72    71    1
     3    74    71    1
     4    74    75    1
     5    71    70    1
     6    70    60   am
     7    58    59    1
     8    75    76   ar
     9    75    77   ar
    10    60    61    2
    11    60    59    1
    12    76    78   ar
    13    77    79   ar
    14    59    62    1
    15    78    80   ar
    16    79    80   ar
    17    62    63    1
    18    63    65   ar
    19    63    64   ar
    20    65    67   ar
    21    81    82    1
    22    85    86    1
    23    85    82    1
    24    87    86   ar
    25    87    89   ar
    26    86    88   ar
    27    89    90   ar
    28    64    66   ar
    29    82    83    1
    30    67    68   ar
    31    88    90   ar
    32    66    68   ar
    33    68    69    1
    34    83    84    2
    35    83    91   am
    36    57    56    1
    37    26    25    2
    38    24    25    1
    39    24    23    1
    40    91    92    1
    41    53    56    1
    42    53    54    1
    43    53    52    1
    44    55    54    2
    45    23    21   am
    46    51    49   ar
    47    52    45   am
    48    92    93    1
    49    21    22    2
    50    21    20    1
    51    49    48    1
    52    49    50   ar
    53    93    94    2
    54    48    47    1
    55    45    46    2
    56    45    44    1
    57    20    19    1
    58    19    17   am
    59     9     7   ar
    60     9    10   ar
    61     7     6   ar
    62    44    47    1
    63    44    43    1
    64    10    12   ar
    65    10     8   ar
    66    12    14   ar
    67    17    16    1
    68    17    18    2
    69    16    15    1
    70     6     8   ar
    71     6     5    1
    72     8    11   ar
    73    14    13   ar
    74     5     2    1
    75    95    96    1
    76   102   100    1
    77   100    99    1
    78    11    13   ar
    79     2     1    1
    80     2     3    1
    81    96    99    1
    82    96    97    1
    83    99   101    1
    84    27    28    1
    85     3     4    2
    86    42    41    1
    87    97    98    2
    88    28    29    1
    89    41    39   ar
    90    41    40   ar
    91    39    37   ar
    92    29    30    2
    93    40    38   ar
    94    37    36   ar
    95    38    36   ar
    96    36    35    1
    97    31    32    1
    98    35    32    1
    99    32    33    1
   100    33    34    2
