@<TRIPOS>MOLECULE
tmp/2ha4B00.pdb
 114 116 0 0 0
SMALL
GASTEIGER

@<TRIPOS>ATOM
      1  N         11.6040   -9.9230  -46.9400 N.3    69  TYR69      -0.1241
      2  CA        11.3370  -10.9050  -45.9050 C.3    69  TYR69       0.1605
      3  C          9.8560  -10.9230  -45.5110 C.2    69  TYR69       0.2264
      4  O          9.2050   -9.8750  -45.3900 O.2    69  TYR69      -0.2867
      5  CB        12.2070  -10.5570  -44.6930 C.3    69  TYR69       0.0534
      6  CG        12.0130  -11.4540  -43.5020 C.ar   69  TYR69      -0.0201
      7  CD1       11.2130  -11.0420  -42.4190 C.ar   69  TYR69      -0.0009
      8  CD2       12.6250  -12.7110  -43.4420 C.ar   69  TYR69      -0.0009
      9  CE1       11.0250  -11.8660  -41.3090 C.ar   69  TYR69       0.0417
     10  CE2       12.4450  -13.5390  -42.3310 C.ar   69  TYR69       0.0417
     11  CZ        11.6460  -13.1060  -41.2720 C.ar   69  TYR69       0.1957
     12  OH        11.4610  -13.9160  -40.1740 O.3    69  TYR69      -0.2866
     13  N          7.2670  -12.2680  -42.5720 N.3    71  ASP71      -0.1239
     14  CA         7.2640  -12.7010  -41.1740 C.3    71  ASP71       0.1674
     15  C          6.6360  -14.0750  -40.9300 C.2    71  ASP71       0.2266
     16  O          5.5960  -14.4130  -41.5020 O.2    71  ASP71      -0.2867
     17  CB         6.5870  -11.6670  -40.2870 C.3    71  ASP71       0.1410
     18  CG         7.0660  -11.7450  -38.8550 C.2    71  ASP71       0.3668
     19  OD1        6.3260  -12.3000  -38.0100 O.co2  71  ASP71      -0.2456
     20  OD2        8.2010  -11.2900  -38.5850 O.co2  71  ASP71      -0.2456
     21  N         13.4410   -2.9930  -44.0160 N.3   121  TYR121     -0.1241
     22  CA        13.5100   -4.3450  -44.6100 C.3   121  TYR121      0.1605
     23  C         12.1540   -4.8350  -45.1500 C.2   121  TYR121      0.2264
     24  O         12.0860   -5.9020  -45.7570 O.2   121  TYR121     -0.2867
     25  CB        14.1170   -5.3860  -43.6310 C.3   121  TYR121      0.0534
     26  CG        13.1900   -5.7720  -42.4820 C.ar  121  TYR121     -0.0201
     27  CD1       12.2440   -6.7870  -42.6340 C.ar  121  TYR121     -0.0009
     28  CD2       13.2430   -5.0970  -41.2500 C.ar  121  TYR121     -0.0009
     29  CE1       11.3730   -7.1280  -41.5980 C.ar  121  TYR121      0.0417
     30  CE2       12.3690   -5.4400  -40.1960 C.ar  121  TYR121      0.0417
     31  CZ        11.4390   -6.4600  -40.3830 C.ar  121  TYR121      0.1957
     32  OH        10.5710   -6.8070  -39.3630 O.3   121  TYR121     -0.2866
     33  N         19.5650  -11.7820  -42.4840 N.3   278  TRP278     -0.1241
     34  CA        19.6200  -11.7260  -41.0230 C.3   278  TRP278      0.1605
     35  C         20.7980  -12.4800  -40.4380 C.2   278  TRP278      0.2264
     36  O         20.7470  -12.9390  -39.3060 O.2   278  TRP278     -0.2867
     37  CB        18.2900  -12.1780  -40.4180 C.3   278  TRP278      0.0550
     38  CG        17.2030  -11.2880  -40.9060 C.ar  278  TRP278      0.0003
     39  CD1       16.2670  -11.5780  -41.8590 C.ar  278  TRP278      0.0946
     40  CD2       16.9820   -9.9180  -40.5210 C.ar  278  TRP278      0.0152
     41  NE1       15.4610  -10.4850  -42.0690 N.ar  278  TRP278     -0.2442
     42  CE2       15.8780   -9.4520  -41.2660 C.ar  278  TRP278      0.0810
     43  CE3       17.6040   -9.0460  -39.6060 C.ar  278  TRP278      0.0012
     44  CZ2       15.3780   -8.1470  -41.1310 C.ar  278  TRP278      0.0191
     45  CZ3       17.1070   -7.7460  -39.4700 C.ar  278  TRP278      0.0001
     46  CH2       16.0060   -7.3130  -40.2320 C.ar  278  TRP278      0.0015
     47  N         15.2430   -4.6420  -32.5400 N.3   287  PHE287     -0.1227
     48  CA        15.1710   -3.2640  -33.0110 C.3   287  PHE287      0.1736
     49  C         16.4690   -2.8850  -33.7030 C.2   287  PHE287      0.2595
     50  O         16.9860   -1.7790  -33.5160 O.2   287  PHE287     -0.2718
     51  CB        14.8470   -2.2740  -31.8710 C.3   287  PHE287      0.0547
     52  CG        13.8780   -1.1780  -32.2630 C.ar  287  PHE287     -0.0202
     53  CD1       14.1060   -0.3790  -33.3940 C.ar  287  PHE287     -0.0042
     54  CD2       12.7300   -0.9530  -31.5100 C.ar  287  PHE287     -0.0042
     55  CE1       13.2060    0.6290  -33.7550 C.ar  287  PHE287     -0.0003
     56  CE2       11.8190    0.0560  -31.8580 C.ar  287  PHE287     -0.0003
     57  CZ        12.0590    0.8470  -32.9800 C.ar  287  PHE287     -0.0000
     58  N         17.0080   -3.8310  -34.4720 N.am  288  ARG288     -0.1966
     59  CA        18.1470   -3.5780  -35.3350 C.3   288  ARG288      0.1729
     60  C         17.9170   -4.2590  -36.6760 C.2   288  ARG288      0.2616
     61  O         17.3450   -5.3590  -36.7440 O.2   288  ARG288     -0.2715
     62  CB        19.4410   -4.0750  -34.7040 C.3   288  ARG288      0.0348
     63  CG        19.8750   -3.3320  -33.4490 C.3   288  ARG288      0.0492
     64  CD        20.4330   -1.9650  -33.6990 C.3   288  ARG288      0.2205
     65  NE        20.8990   -1.4000  -32.4310 N.pl3 288  ARG288     -0.0865
     66  CZ        20.1350   -0.7210  -31.5700 C.cat 288  ARG288      0.5346
     67  NH1       20.6590   -0.2660  -30.4430 N.pl3 288  ARG288      0.1354
     68  NH2       18.8460   -0.4960  -31.8280 N.pl3 288  ARG288      0.1354
     69  N         18.3890   -3.6090  -37.7360 N.am  289  PHE289     -0.1974
     70  CA        18.0380   -3.9730  -39.1000 C.3   289  PHE289      0.1639
     71  C         19.2880   -3.9740  -39.9630 C.2   289  PHE289      0.2290
     72  O         20.0990   -3.0380  -39.9030 O.2   289  PHE289     -0.2864
     73  CB        16.9640   -3.0050  -39.6230 C.3   289  PHE289      0.0560
     74  CG        15.8770   -2.7310  -38.6080 C.ar  289  PHE289     -0.0200
     75  CD1       15.0250   -3.7610  -38.1810 C.ar  289  PHE289     -0.0042
     76  CD2       15.7370   -1.4680  -38.0350 C.ar  289  PHE289     -0.0042
     77  CE1       14.0330   -3.5250  -37.2190 C.ar  289  PHE289     -0.0003
     78  CE2       14.7480   -1.2140  -37.0740 C.ar  289  PHE289     -0.0003
     79  CZ        13.8910   -2.2400  -36.6690 C.ar  289  PHE289     -0.0000
     80  N          6.1840   -4.6300  -28.5560 N.3   329  TYR329     -0.1227
     81  CA         6.1150   -5.4160  -29.7800 C.3   329  TYR329      0.1736
     82  C          7.4050   -6.1680  -30.0620 C.2   329  TYR329      0.2595
     83  O          7.3560   -7.3380  -30.4430 O.2   329  TYR329     -0.2718
     84  CB         5.7910   -4.4620  -30.9380 C.3   329  TYR329      0.0548
     85  CG         5.5340   -5.0720  -32.2880 C.ar  329  TYR329     -0.0200
     86  CD1        4.2280   -5.2340  -32.7540 C.ar  329  TYR329     -0.0009
     87  CD2        6.5860   -5.4360  -33.1320 C.ar  329  TYR329     -0.0009
     88  CE1        3.9610   -5.7770  -34.0290 C.ar  329  TYR329      0.0417
     89  CE2        6.3360   -5.9890  -34.3940 C.ar  329  TYR329      0.0417
     90  CZ         5.0140   -6.1550  -34.8350 C.ar  329  TYR329      0.1957
     91  OH         4.7400   -6.6790  -36.0780 O.3   329  TYR329     -0.2866
     92  N          8.5500   -5.5040  -29.8630 N.am  330  PHE330     -0.1976
     93  CA         9.8620   -6.0490  -30.2480 C.3   330  PHE330      0.1639
     94  C         10.4040   -7.1540  -29.3560 C.2   330  PHE330      0.2290
     95  O         11.2390   -7.9490  -29.7920 O.2   330  PHE330     -0.2864
     96  CB        10.8960   -4.9280  -30.3900 C.3   330  PHE330      0.0560
     97  CG        10.6230   -4.0250  -31.5520 C.ar  330  PHE330     -0.0200
     98  CD1        9.8550   -2.8640  -31.3850 C.ar  330  PHE330     -0.0042
     99  CD2       11.0640   -4.3620  -32.8200 C.ar  330  PHE330     -0.0042
    100  CE1        9.5470   -2.0430  -32.4750 C.ar  330  PHE330     -0.0003
    101  CE2       10.7650   -3.5480  -33.9150 C.ar  330  PHE330     -0.0003
    102  CZ        10.0140   -2.3840  -33.7400 C.ar  330  PHE330     -0.0000
    103  N         10.3410  -10.9050  -30.3360 N.3   333  TYR333     -0.1241
    104  CA        11.1990  -11.2300  -31.4630 C.3   333  TYR333      0.1605
    105  C         12.6430  -11.5340  -31.0520 C.2   333  TYR333      0.2264
    106  O         13.5420  -11.4720  -31.8870 O.2   333  TYR333     -0.2867
    107  CB        11.1830  -10.0770  -32.4680 C.3   333  TYR333      0.0534
    108  CG        10.0140  -10.1050  -33.4190 C.ar  333  TYR333     -0.0201
    109  CD1        8.8740   -9.3320  -33.1780 C.ar  333  TYR333     -0.0009
    110  CD2       10.0450  -10.9110  -34.5690 C.ar  333  TYR333     -0.0009
    111  CE1        7.7890   -9.3520  -34.0550 C.ar  333  TYR333      0.0417
    112  CE2        8.9770  -10.9380  -35.4520 C.ar  333  TYR333      0.0417
    113  CZ         7.8480  -10.1500  -35.1920 C.ar  333  TYR333      0.1957
    114  OH         6.7780  -10.1890  -36.0620 O.3   333  TYR333     -0.2866
@<TRIPOS>BOND
     1     1     2    1
     2     2     3    1
     3     2     5    1
     4    24    23    2
     5     3     4    2
     6    23    22    1
     7     5     6    1
     8    22    21    1
     9    22    25    1
    10    25    26    1
    11     6     8   ar
    12     6     7   ar
    13     8    10   ar
    14    27    26   ar
    15    27    29   ar
    16    13    14    1
    17    33    34    1
    18    26    28   ar
    19     7     9   ar
    20    10    11   ar
    21    41    39   ar
    22    41    42   ar
    23    39    38   ar
    24    29    31   ar
    25    16    15    2
    26     9    11   ar
    27    11    12    1
    28    42    44   ar
    29    42    40   ar
    30    28    30   ar
    31    14    15    1
    32    14    17    1
    33    44    46   ar
    34    34    35    1
    35    34    37    1
    36    38    40   ar
    37    38    37    1
    38    40    43   ar
    39    35    36    2
    40    31    30   ar
    41    31    32    1
    42    17    18    1
    43    46    45   ar
    44    71    72    2
    45    71    70    1
    46    73    70    1
    47    73    74    1
    48    43    45   ar
    49    70    69    1
    50    18    20   ar
    51    18    19   ar
    52    74    75   ar
    53    74    76   ar
    54    75    77   ar
    55    76    78   ar
    56    69    60   am
    57    77    79   ar
    58    78    79   ar
    59    61    60    2
    60    60    59    1
    61    91    90    1
    62   114   113    1
    63   112   113   ar
    64   112   110   ar
    65    59    62    1
    66    59    58    1
    67   113   111   ar
    68    90    89   ar
    69    90    88   ar
    70    62    63    1
    71   110   108   ar
    72    58    49   am
    73    89    87   ar
    74   111   109   ar
    75    88    86   ar
    76   101   102   ar
    77   101    99   ar
    78    55    53   ar
    79    55    57   ar
    80   102   100   ar
    81    49    50    2
    82    49    48    1
    83    64    63    1
    84    64    65    1
    85   108   109   ar
    86   108   107    1
    87    53    52   ar
    88    87    85   ar
    89    48    47    1
    90    48    51    1
    91    57    56   ar
    92    99    97   ar
    93    86    85   ar
    94   100    98   ar
    95   107   104    1
    96    65    66    2
    97    85    84    1
    98    52    51    1
    99    52    54   ar
   100   106   105    2
   101    56    54   ar
   102    68    66    1
   103    66    67    1
   104    97    98   ar
   105    97    96    1
   106   104   105    1
   107   104   103    1
   108    84    81    1
   109    83    82    2
   110    96    93    1
   111    93    92    1
   112    93    94    1
   113    82    92   am
   114    82    81    1
   115    95    94    2
   116    81    80    1
