@<TRIPOS>MOLECULE
tmp/2ha4B01.pdb
 146 144 0 0 0
SMALL
GASTEIGER

@<TRIPOS>ATOM
      1  N          7.2670  -12.2680  -42.5720 N.3    71  ASP71      -0.1239
      2  CA         7.2640  -12.7010  -41.1740 C.3    71  ASP71       0.1674
      3  C          6.6360  -14.0750  -40.9300 C.2    71  ASP71       0.2266
      4  O          5.5960  -14.4130  -41.5020 O.2    71  ASP71      -0.2867
      5  CB         6.5870  -11.6670  -40.2870 C.3    71  ASP71       0.1410
      6  CG         7.0660  -11.7450  -38.8550 C.2    71  ASP71       0.3668
      7  OD1        6.3260  -12.3000  -38.0100 O.co2  71  ASP71      -0.2456
      8  OD2        8.2010  -11.2900  -38.5850 O.co2  71  ASP71      -0.2456
      9  N          0.7770   -6.7090  -41.3620 N.3    83  TRP83      -0.1241
     10  CA         1.9370   -5.9790  -41.8530 C.3    83  TRP83       0.1605
     11  C          2.6740   -6.7420  -42.9650 C.2    83  TRP83       0.2264
     12  O          3.5630   -6.1820  -43.6110 O.2    83  TRP83      -0.2867
     13  CB         2.9090   -5.7030  -40.7090 C.3    83  TRP83       0.0550
     14  CG         2.2890   -5.0710  -39.4980 C.ar   83  TRP83       0.0003
     15  CD1        2.0720   -5.6640  -38.2850 C.ar   83  TRP83       0.0946
     16  CD2        1.8220   -3.7190  -39.3740 C.ar   83  TRP83       0.0152
     17  NE1        1.4970   -4.7630  -37.4180 N.ar   83  TRP83      -0.2442
     18  CE2        1.3360   -3.5640  -38.0580 C.ar   83  TRP83       0.0810
     19  CE3        1.7630   -2.6280  -40.2480 C.ar   83  TRP83       0.0012
     20  CZ2        0.8010   -2.3550  -37.5910 C.ar   83  TRP83       0.0191
     21  CZ3        1.2300   -1.4220  -39.7850 C.ar   83  TRP83       0.0001
     22  CH2        0.7600   -1.2960  -38.4670 C.ar   83  TRP83       0.0015
     23  N          6.6130    2.3460  -42.8080 N.3   117  GLY117     -0.1210
     24  CA         7.7300    1.7820  -42.0300 C.3   117  GLY117      0.1956
     25  C          7.8850    0.2840  -42.2630 C.2   117  GLY117      0.2612
     26  O          7.2940   -0.2680  -43.2010 O.2   117  GLY117     -0.2717
     27  N          8.6740   -0.3750  -41.4180 N.am  118  GLY118     -0.1942
     28  CA         9.0880   -1.7610  -41.6580 C.3   118  GLY118      0.2014
     29  C         10.5800   -2.0280  -41.5120 C.2   118  GLY118      0.2639
     30  O         11.1110   -2.9870  -42.1020 O.2   118  GLY118     -0.2714
     31  N         11.2550   -1.1930  -40.7240 N.am  119  GLY119     -0.1954
     32  CA        12.6790   -1.3330  -40.4180 C.3   119  GLY119      0.1869
     33  C         13.6320   -1.1890  -41.5900 C.2   119  GLY119      0.2309
     34  O         14.7900   -1.5870  -41.4880 O.2   119  GLY119     -0.2863
     35  N         13.4410   -2.9930  -44.0160 N.3   121  TYR121     -0.1227
     36  CA        13.5100   -4.3450  -44.6100 C.3   121  TYR121      0.1736
     37  C         12.1540   -4.8350  -45.1500 C.2   121  TYR121      0.2596
     38  O         12.0860   -5.9020  -45.7570 O.2   121  TYR121     -0.2718
     39  CB        14.1170   -5.3860  -43.6310 C.3   121  TYR121      0.0548
     40  CG        13.1900   -5.7720  -42.4820 C.ar  121  TYR121     -0.0200
     41  CD1       12.2440   -6.7870  -42.6340 C.ar  121  TYR121     -0.0009
     42  CD2       13.2430   -5.0970  -41.2500 C.ar  121  TYR121     -0.0009
     43  CE1       11.3730   -7.1280  -41.5980 C.ar  121  TYR121      0.0417
     44  CE2       12.3690   -5.4400  -40.1960 C.ar  121  TYR121      0.0417
     45  CZ        11.4390   -6.4600  -40.3830 C.ar  121  TYR121      0.1957
     46  OH        10.5710   -6.8070  -39.3630 O.3   121  TYR121     -0.2866
     47  N         11.0850   -4.0710  -44.9320 N.am  122  SER122     -0.1952
     48  CA         9.7370   -4.5200  -45.2870 C.3   122  SER122      0.1924
     49  C          8.7490   -3.3660  -45.3370 C.2   122  SER122      0.2314
     50  O          9.0930   -2.2310  -45.0120 O.2   122  SER122     -0.2863
     51  CB         9.2410   -5.5620  -44.2910 C.3   122  SER122      0.2116
     52  OG         9.1030   -4.9940  -42.9940 O.3   122  SER122     -0.2180
     53  N         -3.0880    1.5880  -44.4910 N.3   130  TYR130     -0.1241
     54  CA        -2.6590    2.7900  -45.2050 C.3   130  TYR130      0.1605
     55  C         -3.6610    3.2800  -46.2460 C.2   130  TYR130      0.2264
     56  O         -3.3200    4.1030  -47.0810 O.2   130  TYR130     -0.2867
     57  CB        -1.2980    2.5770  -45.8790 C.3   130  TYR130      0.0534
     58  CG        -0.2130    2.0120  -44.9830 C.ar  130  TYR130     -0.0201
     59  CD1       -0.1550    2.3320  -43.6300 C.ar  130  TYR130     -0.0009
     60  CD2        0.7660    1.1580  -45.5060 C.ar  130  TYR130     -0.0009
     61  CE1        0.8440    1.8080  -42.8170 C.ar  130  TYR130      0.0417
     62  CE2        1.7780    0.6330  -44.7000 C.ar  130  TYR130      0.0417
     63  CZ         1.8100    0.9640  -43.3570 C.ar  130  TYR130      0.1957
     64  OH         2.7870    0.4450  -42.5460 O.3   130  TYR130     -0.2866
     65  N          5.6350    6.5370  -40.5560 N.3   199  GLU199     -0.1231
     66  CA         5.7760    5.9360  -39.2280 C.3   199  GLU199      0.1699
     67  C          6.9760    4.9880  -39.1370 C.2   199  GLU199      0.2592
     68  O          7.2310    4.2100  -40.0600 O.2   199  GLU199     -0.2718
     69  CB         4.4850    5.2320  -38.8160 C.3   199  GLU199      0.0402
     70  CG         4.4950    4.6650  -37.4010 C.3   199  GLU199      0.1161
     71  CD         4.9060    3.2110  -37.3420 C.2   199  GLU199      0.3649
     72  OE1        5.0940    2.5870  -38.4080 O.co2 199  GLU199     -0.2457
     73  OE2        5.0390    2.6740  -36.2200 O.co2 199  GLU199     -0.2457
     74  N          7.6880    5.0610  -38.0120 N.am  200  ALA200     -0.1980
     75  CA         8.8330    4.2010  -37.7240 C.3   200  ALA200      0.1597
     76  C          9.9490    4.4580  -38.7610 C.2   200  ALA200      0.2287
     77  O         10.4280    5.5870  -38.8500 O.2   200  ALA200     -0.2864
     78  CB         8.4070    2.7450  -37.6590 C.3   200  ALA200      0.0319
     79  N         18.3890   -3.6090  -37.7360 N.3   289  PHE289     -0.1241
     80  CA        18.0380   -3.9730  -39.1000 C.3   289  PHE289      0.1605
     81  C         19.2880   -3.9740  -39.9630 C.2   289  PHE289      0.2264
     82  O         20.0990   -3.0380  -39.9030 O.2   289  PHE289     -0.2867
     83  CB        16.9640   -3.0050  -39.6230 C.3   289  PHE289      0.0534
     84  CG        15.8770   -2.7310  -38.6080 C.ar  289  PHE289     -0.0203
     85  CD1       15.0250   -3.7610  -38.1810 C.ar  289  PHE289     -0.0042
     86  CD2       15.7370   -1.4680  -38.0350 C.ar  289  PHE289     -0.0042
     87  CE1       14.0330   -3.5250  -37.2190 C.ar  289  PHE289     -0.0003
     88  CE2       14.7480   -1.2140  -37.0740 C.ar  289  PHE289     -0.0003
     89  CZ        13.8910   -2.2400  -36.6690 C.ar  289  PHE289     -0.0000
     90  N          6.1840   -4.6300  -28.5560 N.3   329  TYR329     -0.1227
     91  CA         6.1150   -5.4160  -29.7800 C.3   329  TYR329      0.1736
     92  C          7.4050   -6.1680  -30.0620 C.2   329  TYR329      0.2595
     93  O          7.3560   -7.3380  -30.4430 O.2   329  TYR329     -0.2718
     94  CB         5.7910   -4.4620  -30.9380 C.3   329  TYR329      0.0548
     95  CG         5.5340   -5.0720  -32.2880 C.ar  329  TYR329     -0.0200
     96  CD1        4.2280   -5.2340  -32.7540 C.ar  329  TYR329     -0.0009
     97  CD2        6.5860   -5.4360  -33.1320 C.ar  329  TYR329     -0.0009
     98  CE1        3.9610   -5.7770  -34.0290 C.ar  329  TYR329      0.0417
     99  CE2        6.3360   -5.9890  -34.3940 C.ar  329  TYR329      0.0417
    100  CZ         5.0140   -6.1550  -34.8350 C.ar  329  TYR329      0.1957
    101  OH         4.7400   -6.6790  -36.0780 O.3   329  TYR329     -0.2866
    102  N          8.5500   -5.5040  -29.8630 N.am  330  PHE330     -0.1976
    103  CA         9.8620   -6.0490  -30.2480 C.3   330  PHE330      0.1639
    104  C         10.4040   -7.1540  -29.3560 C.2   330  PHE330      0.2290
    105  O         11.2390   -7.9490  -29.7920 O.2   330  PHE330     -0.2864
    106  CB        10.8960   -4.9280  -30.3900 C.3   330  PHE330      0.0560
    107  CG        10.6230   -4.0250  -31.5520 C.ar  330  PHE330     -0.0200
    108  CD1        9.8550   -2.8640  -31.3850 C.ar  330  PHE330     -0.0042
    109  CD2       11.0640   -4.3620  -32.8200 C.ar  330  PHE330     -0.0042
    110  CE1        9.5470   -2.0430  -32.4750 C.ar  330  PHE330     -0.0003
    111  CE2       10.7650   -3.5480  -33.9150 C.ar  330  PHE330     -0.0003
    112  CZ        10.0140   -2.3840  -33.7400 C.ar  330  PHE330     -0.0000
    113  N         10.3410  -10.9050  -30.3360 N.3   333  TYR333     -0.1241
    114  CA        11.1990  -11.2300  -31.4630 C.3   333  TYR333      0.1605
    115  C         12.6430  -11.5340  -31.0520 C.2   333  TYR333      0.2264
    116  O         13.5420  -11.4720  -31.8870 O.2   333  TYR333     -0.2867
    117  CB        11.1830  -10.0770  -32.4680 C.3   333  TYR333      0.0534
    118  CG        10.0140  -10.1050  -33.4190 C.ar  333  TYR333     -0.0201
    119  CD1        8.8740   -9.3320  -33.1780 C.ar  333  TYR333     -0.0009
    120  CD2       10.0450  -10.9110  -34.5690 C.ar  333  TYR333     -0.0009
    121  CE1        7.7890   -9.3520  -34.0550 C.ar  333  TYR333      0.0417
    122  CE2        8.9770  -10.9380  -35.4520 C.ar  333  TYR333      0.0417
    123  CZ         7.8480  -10.1500  -35.1920 C.ar  333  TYR333      0.1957
    124  OH         6.7780  -10.1890  -36.0620 O.3   333  TYR333     -0.2866
    125  N          3.8730   -0.2180  -30.7620 N.3   439  HIS439     -0.1226
    126  CA         4.4470    0.3910  -31.9490 C.3   439  HIS439      0.1752
    127  C          3.5960    0.0840  -33.1900 C.2   439  HIS439      0.2596
    128  O          3.3660   -1.0880  -33.5210 O.2   439  HIS439     -0.2718
    129  CB         5.8420   -0.2050  -32.0930 C.3   439  HIS439      0.0759
    130  CG         6.6630    0.3800  -33.1930 C.ar  439  HIS439      0.0818
    131  ND1        7.2900    1.6080  -33.0850 N.ar  439  HIS439     -0.2268
    132  CD2        7.0180   -0.1220  -34.4020 C.ar  439  HIS439      0.1154
    133  CE1        7.9730    1.8470  -34.1910 C.ar  439  HIS439      0.1986
    134  NE2        7.8260    0.8140  -35.0060 N.ar  439  HIS439     -0.2212
    135  N          3.1200    1.1340  -33.8660 N.am  440  GLY440     -0.1957
    136  CA         2.3760    0.9820  -35.1230 C.3   440  GLY440      0.1869
    137  C          0.8590    1.0480  -35.0210 C.2   440  GLY440      0.2309
    138  O          0.1700    1.1600  -36.0390 O.2   440  GLY440     -0.2863
    139  N         -1.6280    4.1660  -36.4080 N.3   443  ILE443     -0.1245
    140  CA        -1.7780    4.4180  -37.8440 C.3   443  ILE443      0.1561
    141  C         -3.2160    4.2440  -38.2950 C.2   443  ILE443      0.2260
    142  O         -3.7600    5.1030  -38.9880 O.2   443  ILE443     -0.2867
    143  CB        -0.8440    3.5430  -38.7120 C.3   443  ILE443      0.0252
    144  CG1        0.6420    3.8200  -38.3940 C.3   443  ILE443      0.0019
    145  CG2       -1.1240    3.7780  -40.1890 C.3   443  ILE443      0.0019
    146  CD1        1.5920    2.7010  -38.8470 C.3   443  ILE443      0.0001
@<TRIPOS>BOND
     1    56    55    2
     2    55    54    1
     3    57    54    1
     4    57    58    1
     5    38    37    2
     6    60    58   ar
     7    60    62   ar
     8    49    48    1
     9    49    50    2
    10    48    47    1
    11    48    51    1
    12    54    53    1
    13    37    47   am
    14    37    36    1
    15    58    59   ar
    16    62    63   ar
    17    36    35    1
    18    36    39    1
    19    51    52    1
    20    39    40    1
    21    59    61   ar
    22    12    11    2
    23    63    61   ar
    24    63    64    1
    25    26    25    2
    26    11    10    1
    27    23    24    1
    28    41    40   ar
    29    41    43   ar
    30     1     2    1
    31    40    42   ar
    32    25    24    1
    33    25    27   am
    34    30    29    2
    35    10     9    1
    36    10    13    1
    37    28    29    1
    38    28    27    1
    39    43    45   ar
    40    33    34    2
    41    33    32    1
    42    29    31   am
    43     4     3    2
    44    42    44   ar
    45     2     3    1
    46     2     5    1
    47    31    32    1
    48    13    14    1
    49    65    66    1
    50    45    44   ar
    51    45    46    1
    52     5     6    1
    53    19    21   ar
    54    19    16   ar
    55   145   143    1
    56    68    67    2
    57    81    82    2
    58    81    80    1
    59    21    22   ar
    60    83    80    1
    61    83    84    1
    62    14    16   ar
    63    14    15   ar
    64    16    18   ar
    65    66    67    1
    66    66    69    1
    67    67    74   am
    68    80    79    1
    69   142   141    2
    70     6     8   ar
    71     6     7   ar
    72    77    76    2
    73   146   144    1
    74    69    70    1
    75    76    75    1
    76   143   144    1
    77   143   140    1
    78    84    85   ar
    79    84    86   ar
    80    22    20   ar
    81    72    71   ar
    82   141   140    1
    83    15    17   ar
    84    85    87   ar
    85    18    20   ar
    86    18    17   ar
    87    86    88   ar
    88    74    75    1
    89   140   139    1
    90    75    78    1
    91    70    71    1
    92    71    73   ar
    93    87    89   ar
    94    88    89   ar
    95   101   100    1
    96   124   123    1
    97   138   137    2
    98   122   123   ar
    99   122   120   ar
   100   123   121   ar
   101   136   137    1
   102   136   135    1
   103   134   132   ar
   104   134   133   ar
   105   100    99   ar
   106   100    98   ar
   107   120   118   ar
   108   132   130   ar
   109    99    97   ar
   110   133   131   ar
   111   121   119   ar
   112    98    96   ar
   113   111   112   ar
   114   111   109   ar
   115   135   127   am
   116   112   110   ar
   117   128   127    2
   118   118   119   ar
   119   118   117    1
   120   130   131   ar
   121   130   129    1
   122   127   126    1
   123    97    95   ar
   124   109   107   ar
   125    96    95   ar
   126   110   108   ar
   127   117   114    1
   128    95    94    1
   129   129   126    1
   130   126   125    1
   131   116   115    2
   132   107   108   ar
   133   107   106    1
   134   114   115    1
   135   114   113    1
   136    94    91    1
   137    93    92    2
   138   106   103    1
   139   103   102    1
   140   103   104    1
   141    92   102   am
   142    92    91    1
   143   105   104    2
   144    91    90    1
