@<TRIPOS>MOLECULE
tmp/2ha5B00.pdb
 130 130 0 0 0
SMALL
GASTEIGER

@<TRIPOS>ATOM
      1  N          0.7090   -6.6950  -41.4530 N.3    83  TRP83      -0.1241
      2  CA         1.8920   -5.9670  -41.9150 C.3    83  TRP83       0.1605
      3  C          2.6300   -6.6640  -43.0590 C.2    83  TRP83       0.2264
      4  O          3.5310   -6.0680  -43.6630 O.2    83  TRP83      -0.2867
      5  CB         2.8780   -5.7840  -40.7570 C.3    83  TRP83       0.0550
      6  CG         2.2760   -5.1570  -39.5670 C.ar   83  TRP83       0.0003
      7  CD1        2.0570   -5.7500  -38.3670 C.ar   83  TRP83       0.0946
      8  CD2        1.7890   -3.8170  -39.4560 C.ar   83  TRP83       0.0152
      9  NE1        1.4680   -4.8630  -37.5060 N.ar   83  TRP83      -0.2442
     10  CE2        1.2990   -3.6630  -38.1460 C.ar   83  TRP83       0.0810
     11  CE3        1.7220   -2.7300  -40.3350 C.ar   83  TRP83       0.0012
     12  CZ2        0.7450   -2.4640  -37.6870 C.ar   83  TRP83       0.0191
     13  CZ3        1.1680   -1.5380  -39.8860 C.ar   83  TRP83       0.0001
     14  CH2        0.6810   -1.4170  -38.5740 C.ar   83  TRP83       0.0015
     15  N          6.6370    2.3750  -42.9410 N.3   117  GLY117     -0.1210
     16  CA         7.7290    1.7490  -42.2060 C.3   117  GLY117      0.1956
     17  C          7.7840    0.2400  -42.3980 C.2   117  GLY117      0.2612
     18  O          7.0830   -0.3060  -43.2500 O.2   117  GLY117     -0.2717
     19  N          8.6040   -0.4130  -41.5720 N.am  118  GLY118     -0.1942
     20  CA         8.9850   -1.8180  -41.7250 C.3   118  GLY118      0.2014
     21  C         10.4810   -2.1080  -41.6050 C.2   118  GLY118      0.2639
     22  O         10.9790   -3.0890  -42.1790 O.2   118  GLY118     -0.2714
     23  N         11.1960   -1.2850  -40.8390 N.am  119  GLY119     -0.1954
     24  CA        12.6130   -1.4990  -40.5320 C.3   119  GLY119      0.1869
     25  C         13.5560   -1.3050  -41.7030 C.2   119  GLY119      0.2309
     26  O         14.7030   -1.7490  -41.6630 O.2   119  GLY119     -0.2863
     27  N         13.3030   -3.0050  -44.1900 N.3   121  TYR121     -0.1227
     28  CA        13.3870   -4.3620  -44.7410 C.3   121  TYR121      0.1736
     29  C         12.0340   -4.8820  -45.2520 C.2   121  TYR121      0.2596
     30  O         11.9740   -5.9610  -45.8380 O.2   121  TYR121     -0.2718
     31  CB        13.9750   -5.3690  -43.7130 C.3   121  TYR121      0.0548
     32  CG        13.0430   -5.7610  -42.5830 C.ar  121  TYR121     -0.0200
     33  CD1       12.0640   -6.7200  -42.7650 C.ar  121  TYR121     -0.0009
     34  CD2       13.1300   -5.1570  -41.3390 C.ar  121  TYR121     -0.0009
     35  CE1       11.1880   -7.0630  -41.7510 C.ar  121  TYR121      0.0417
     36  CE2       12.2590   -5.5020  -40.3110 C.ar  121  TYR121      0.0417
     37  CZ        11.2910   -6.4610  -40.5290 C.ar  121  TYR121      0.1957
     38  OH        10.4260   -6.8150  -39.5170 O.3   121  TYR121     -0.2866
     39  N         10.9610   -4.1190  -45.0290 N.am  122  SER122     -0.1952
     40  CA         9.6120   -4.5820  -45.3220 C.3   122  SER122      0.1924
     41  C          8.6720   -3.4060  -45.5120 C.2   122  SER122      0.2314
     42  O          9.0780   -2.2470  -45.3630 O.2   122  SER122     -0.2863
     43  CB         9.0990   -5.4780  -44.1890 C.3   122  SER122      0.2116
     44  OG         9.0770   -4.7820  -42.9570 O.3   122  SER122     -0.2180
     45  N         -3.1290    1.6850  -44.4990 N.3   130  TYR130     -0.1241
     46  CA        -2.6480    2.8710  -45.2250 C.3   130  TYR130      0.1605
     47  C         -3.6400    3.3320  -46.2830 C.2   130  TYR130      0.2264
     48  O         -3.3050    4.1290  -47.1540 O.2   130  TYR130     -0.2867
     49  CB        -1.2950    2.6110  -45.8860 C.3   130  TYR130      0.0534
     50  CG        -0.2270    2.0240  -44.9870 C.ar  130  TYR130     -0.0201
     51  CD1       -0.1240    2.3820  -43.6510 C.ar  130  TYR130     -0.0009
     52  CD2        0.7030    1.1230  -45.4900 C.ar  130  TYR130     -0.0009
     53  CE1        0.8740    1.8400  -42.8370 C.ar  130  TYR130      0.0417
     54  CE2        1.6920    0.5750  -44.6820 C.ar  130  TYR130      0.0417
     55  CZ         1.7790    0.9460  -43.3600 C.ar  130  TYR130      0.1957
     56  OH         2.7570    0.4010  -42.5590 O.3   130  TYR130     -0.2866
     57  N          5.5200    6.4710  -40.4840 N.3   199  GLU199     -0.1231
     58  CA         5.6700    5.8260  -39.1920 C.3   199  GLU199      0.1699
     59  C          6.8920    4.8950  -39.1680 C.2   199  GLU199      0.2592
     60  O          7.2120    4.2510  -40.1640 O.2   199  GLU199     -0.2718
     61  CB         4.3970    5.0690  -38.8430 C.3   199  GLU199      0.0402
     62  CG         4.3450    4.4690  -37.4350 C.3   199  GLU199      0.1161
     63  CD         4.8710    3.0360  -37.3450 C.2   199  GLU199      0.3649
     64  OE1        5.1580    2.4360  -38.3860 O.co2 199  GLU199     -0.2457
     65  OE2        5.0020    2.5050  -36.2220 O.co2 199  GLU199     -0.2457
     66  N          7.5810    4.8590  -38.0290 N.am  200  ALA200     -0.1980
     67  CA         8.7720    4.0090  -37.8230 C.3   200  ALA200      0.1597
     68  C          9.8630    4.2920  -38.8760 C.2   200  ALA200      0.2287
     69  O         10.2780    5.4450  -38.9980 O.2   200  ALA200     -0.2864
     70  CB         8.3800    2.5490  -37.7470 C.3   200  ALA200      0.0319
     71  N         18.1880   -3.7860  -37.8920 N.3   287  PHE287     -0.1241
     72  CA        17.8630   -4.1370  -39.2770 C.3   287  PHE287      0.1605
     73  C         19.1370   -4.0730  -40.1230 C.2   287  PHE287      0.2264
     74  O         19.9310   -3.1300  -40.0170 O.2   287  PHE287     -0.2867
     75  CB        16.7780   -3.1750  -39.7840 C.3   287  PHE287      0.0534
     76  CG        15.6970   -2.9300  -38.7710 C.ar  287  PHE287     -0.0203
     77  CD1       14.8660   -3.9710  -38.3660 C.ar  287  PHE287     -0.0042
     78  CD2       15.5340   -1.6880  -38.1850 C.ar  287  PHE287     -0.0042
     79  CE1       13.8670   -3.7640  -37.4140 C.ar  287  PHE287     -0.0003
     80  CE2       14.5430   -1.4740  -37.2170 C.ar  287  PHE287     -0.0003
     81  CZ        13.7120   -2.5100  -36.8390 C.ar  287  PHE287     -0.0000
     82  N          6.1860   -4.8610  -28.7940 N.3   327  TYR327     -0.1227
     83  CA         6.1210   -5.6490  -30.0190 C.3   327  TYR327      0.1736
     84  C          7.3800   -6.4680  -30.2590 C.2   327  TYR327      0.2595
     85  O          7.3100   -7.6370  -30.6380 O.2   327  TYR327     -0.2718
     86  CB         5.9250   -4.6910  -31.2080 C.3   327  TYR327      0.0548
     87  CG         5.5640   -5.3400  -32.5130 C.ar  327  TYR327     -0.0200
     88  CD1        4.2400   -5.3650  -32.9350 C.ar  327  TYR327     -0.0009
     89  CD2        6.5350   -5.9100  -33.3420 C.ar  327  TYR327     -0.0009
     90  CE1        3.8740   -5.9550  -34.1420 C.ar  327  TYR327      0.0417
     91  CE2        6.1750   -6.5180  -34.5650 C.ar  327  TYR327      0.0417
     92  CZ         4.8350   -6.5230  -34.9520 C.ar  327  TYR327      0.1957
     93  OH         4.4180   -7.0930  -36.1390 O.3   327  TYR327     -0.2866
     94  N          8.5290   -5.8370  -30.0500 N.am  328  PHE328     -0.1976
     95  CA         9.8160   -6.3870  -30.4690 C.3   328  PHE328      0.1639
     96  C         10.3550   -7.4610  -29.5560 C.2   328  PHE328      0.2290
     97  O         11.2610   -8.1900  -29.9410 O.2   328  PHE328     -0.2864
     98  CB        10.8530   -5.2680  -30.5530 C.3   328  PHE328      0.0560
     99  CG        10.5340   -4.2420  -31.5820 C.ar  328  PHE328     -0.0200
    100  CD1        9.7330   -3.1470  -31.2650 C.ar  328  PHE328     -0.0042
    101  CD2       11.0120   -4.3780  -32.8780 C.ar  328  PHE328     -0.0042
    102  CE1        9.4250   -2.2100  -32.2200 C.ar  328  PHE328     -0.0003
    103  CE2       10.7080   -3.4370  -33.8420 C.ar  328  PHE328     -0.0003
    104  CZ         9.9220   -2.3530  -33.5190 C.ar  328  PHE328     -0.0000
    105  N         10.2890  -11.2280  -30.5000 N.3   331  TYR331     -0.1241
    106  CA        11.1540  -11.5920  -31.6210 C.3   331  TYR331      0.1605
    107  C         12.6100  -11.8430  -31.2210 C.2   331  TYR331      0.2264
    108  O         13.5010  -11.7790  -32.0720 O.2   331  TYR331     -0.2867
    109  CB        11.1470  -10.4650  -32.6610 C.3   331  TYR331      0.0534
    110  CG         9.9180  -10.4350  -33.5170 C.ar  331  TYR331     -0.0201
    111  CD1        8.8460   -9.6010  -33.2090 C.ar  331  TYR331     -0.0009
    112  CD2        9.8220  -11.2480  -34.6390 C.ar  331  TYR331     -0.0009
    113  CE1        7.7030   -9.5830  -34.0070 C.ar  331  TYR331      0.0417
    114  CE2        8.6970  -11.2290  -35.4440 C.ar  331  TYR331      0.0417
    115  CZ         7.6390  -10.3920  -35.1330 C.ar  331  TYR331      0.1957
    116  OH         6.5200  -10.3910  -35.9380 O.3   331  TYR331     -0.2866
    117  N          3.8180   -0.3380  -30.9310 N.3   437  HIS437     -0.1226
    118  CA         4.3870    0.2590  -32.1250 C.3   437  HIS437      0.1752
    119  C          3.5420   -0.1020  -33.3590 C.2   437  HIS437      0.2596
    120  O          3.3750   -1.2800  -33.6890 O.2   437  HIS437     -0.2718
    121  CB         5.8140   -0.2920  -32.2520 C.3   437  HIS437      0.0759
    122  CG         6.6520    0.3350  -33.3210 C.ar  437  HIS437      0.0818
    123  ND1        7.1360    1.6250  -33.2330 N.ar  437  HIS437     -0.2268
    124  CD2        7.1730   -0.1860  -34.4590 C.ar  437  HIS437      0.1154
    125  CE1        7.8830    1.8830  -34.2950 C.ar  437  HIS437      0.1986
    126  NE2        7.9300    0.7950  -35.0480 N.ar  437  HIS437     -0.2212
    127  N          2.9880    0.9280  -34.0050 N.am  438  GLY438     -0.1957
    128  CA         2.2420    0.7820  -35.2380 C.3   438  GLY438      0.1869
    129  C          0.7480    0.9800  -35.0970 C.2   438  GLY438      0.2309
    130  O          0.0690    1.1510  -36.1000 O.2   438  GLY438     -0.2863
@<TRIPOS>BOND
     1    48    47    2
     2    47    46    1
     3    49    46    1
     4    49    50    1
     5    30    29    2
     6    41    42    2
     7    41    40    1
     8    52    50   ar
     9    52    54   ar
    10    40    39    1
    11    40    43    1
    12    29    39   am
    13    29    28    1
    14    46    45    1
    15    50    51   ar
    16    28    27    1
    17    28    31    1
    18    54    55   ar
    19    43    44    1
    20    31    32    1
    21     4     3    2
    22    51    53   ar
    23    55    53   ar
    24    55    56    1
    25    18    17    2
    26     3     2    1
    27    15    16    1
    28    33    32   ar
    29    33    35   ar
    30    32    34   ar
    31    17    16    1
    32    17    19   am
    33    22    21    2
    34     2     1    1
    35     2     5    1
    36    35    37   ar
    37    20    21    1
    38    20    19    1
    39    25    26    2
    40    25    24    1
    41    21    23   am
    42    34    36   ar
    43    23    24    1
    44     5     6    1
    45    37    36   ar
    46    37    38    1
    47    57    58    1
    48    11    13   ar
    49    11     8   ar
    50    60    59    2
    51    73    74    2
    52    73    72    1
    53    13    14   ar
    54    75    72    1
    55    75    76    1
    56     6     8   ar
    57     6     7   ar
    58     8    10   ar
    59    72    71    1
    60    58    59    1
    61    58    61    1
    62    59    66   am
    63    69    68    2
    64    68    67    1
    65    61    62    1
    66    76    77   ar
    67    76    78   ar
    68    14    12   ar
    69    64    63   ar
    70     7     9   ar
    71    77    79   ar
    72    78    80   ar
    73    10    12   ar
    74    10     9   ar
    75    66    67    1
    76    67    70    1
    77    62    63    1
    78    79    81   ar
    79    63    65   ar
    80    80    81   ar
    81    93    92    1
    82   130   129    2
    83   116   115    1
    84   114   115   ar
    85   114   112   ar
    86   128   129    1
    87   128   127    1
    88   115   113   ar
    89   126   124   ar
    90   126   125   ar
    91    92    91   ar
    92    92    90   ar
    93   112   110   ar
    94    91    89   ar
    95   124   122   ar
    96   125   123   ar
    97    90    88   ar
    98   113   111   ar
    99   127   119   am
   100   103   104   ar
   101   103   101   ar
   102   120   119    2
   103   104   102   ar
   104   110   111   ar
   105   110   109    1
   106   119   118    1
   107    89    87   ar
   108   122   123   ar
   109   122   121    1
   110    88    87   ar
   111   101    99   ar
   112   109   106    1
   113    87    86    1
   114   121   118    1
   115   102   100   ar
   116   118   117    1
   117   108   107    2
   118   106   107    1
   119   106   105    1
   120    99   100   ar
   121    99    98    1
   122    86    83    1
   123    85    84    2
   124    98    95    1
   125    95    94    1
   126    95    96    1
   127    84    94   am
   128    84    83    1
   129    83    82    1
   130    97    96    2
