@<TRIPOS>MOLECULE
tmp/2ha5B04.pdb
 87 80 0 0 0
SMALL
GASTEIGER

@<TRIPOS>ATOM
      1  N        -10.0760    4.5000  -60.5810 N.3    17  ILE17      -0.1245
      2  CA       -11.2340    3.7150  -60.1840 C.3    17  ILE17       0.1561
      3  C        -11.9780    4.4470  -59.0750 C.2    17  ILE17       0.2260
      4  O        -11.3710    5.0460  -58.1840 O.2    17  ILE17      -0.2867
      5  CB       -10.8150    2.2950  -59.7290 C.3    17  ILE17       0.0252
      6  CG1      -12.0340    1.4640  -59.3060 C.3    17  ILE17       0.0019
      7  CG2       -9.7990    2.3680  -58.6100 C.3    17  ILE17       0.0019
      8  CD1      -11.7110    0.0010  -59.0120 C.3    17  ILE17       0.0001
      9  N        -13.8340    4.4730  -55.8020 N.3    19  LEU19      -0.1245
     10  CA       -13.9890    3.6630  -54.6000 C.3    19  LEU19       0.1561
     11  C        -15.0770    4.2430  -53.7130 C.2    19  LEU19       0.2260
     12  O        -15.3860    5.4260  -53.7870 O.2    19  LEU19      -0.2867
     13  CB       -12.6780    3.5780  -53.8230 C.3    19  LEU19       0.0270
     14  CG       -11.4680    2.9820  -54.5490 C.3    19  LEU19       0.0019
     15  CD1      -10.2550    2.9520  -53.6180 C.3    19  LEU19       0.0001
     16  CD2      -11.7750    1.5980  -55.0720 C.3    19  LEU19       0.0001
     17  N         -4.1950    3.9800  -58.7340 N.3    30  LEU30      -0.1245
     18  CA        -3.3470    3.0280  -58.0360 C.3    30  LEU30       0.1561
     19  C         -2.3660    2.3400  -58.9940 C.2    30  LEU30       0.2260
     20  O         -2.7180    1.9940  -60.1120 O.2    30  LEU30      -0.2867
     21  CB        -4.2390    1.9530  -57.3850 C.3    30  LEU30       0.0270
     22  CG        -5.3730    2.4320  -56.4700 C.3    30  LEU30       0.0019
     23  CD1       -6.1810    1.2650  -55.9700 C.3    30  LEU30       0.0001
     24  CD2       -4.8340    3.2470  -55.2850 C.3    30  LEU30       0.0001
     25  N         -6.1470    1.1050  -61.7440 N.3    60  THR60      -0.1203
     26  CA        -7.3190    0.7150  -60.9670 C.3    60  THR60       0.1994
     27  C         -6.9930   -0.2550  -59.8340 C.2    60  THR60       0.2619
     28  O         -7.8620   -0.5340  -58.9990 O.2    60  THR60      -0.2717
     29  CB        -8.4030    0.0390  -61.8690 C.3    60  THR60       0.1784
     30  OG1       -7.8820   -1.1770  -62.4330 O.3    60  THR60      -0.2211
     31  CG2       -8.8800    0.9800  -63.0030 C.3    60  THR60       0.0376
     32  N         -5.7710   -0.7900  -59.8200 N.am   61  THR61      -0.1938
     33  CA        -5.3700   -1.7920  -58.8300 C.3    61  THR61       0.2028
     34  C         -3.9840   -1.4840  -58.2570 C.2    61  THR61       0.2642
     35  O         -3.1670   -0.8070  -58.8940 O.2    61  THR61      -0.2714
     36  CB        -5.3800   -3.2380  -59.4190 C.3    61  THR61       0.1808
     37  OG1       -4.4850   -3.3280  -60.5240 O.3    61  THR61      -0.2208
     38  CG2       -6.7770   -3.6290  -59.9150 C.3    61  THR61       0.0379
     39  N         -3.7390   -1.9660  -57.0390 N.am   62  PHE62      -0.1973
     40  CA        -2.4300   -1.8330  -56.4110 C.3    62  PHE62       0.1639
     41  C         -1.4400   -2.6910  -57.1850 C.2    62  PHE62       0.2290
     42  O         -1.7860   -3.7590  -57.6700 O.2    62  PHE62      -0.2864
     43  CB        -2.4540   -2.2990  -54.9490 C.3    62  PHE62       0.0560
     44  CG        -3.0800   -1.3180  -53.9950 C.ar   62  PHE62      -0.0200
     45  CD1       -2.5210   -0.0600  -53.7990 C.ar   62  PHE62      -0.0042
     46  CD2       -4.2100   -1.6650  -53.2620 C.ar   62  PHE62      -0.0042
     47  CE1       -3.0790    0.8390  -52.9140 C.ar   62  PHE62      -0.0003
     48  CE2       -4.7760   -0.7640  -52.3710 C.ar   62  PHE62      -0.0003
     49  CZ        -4.2040    0.4870  -52.1980 C.ar   62  PHE62      -0.0000
     50  N          0.1150   -8.1780  -51.7920 N.3    87  ARG87      -0.1245
     51  CA         0.1480   -8.4060  -53.2380 C.3    87  ARG87       0.1563
     52  C          1.4230   -9.1780  -53.5330 C.2    87  ARG87       0.2260
     53  O          2.2850   -9.2860  -52.6700 O.2    87  ARG87      -0.2867
     54  CB         0.1490   -7.0920  -54.0160 C.3    87  ARG87       0.0307
     55  CG        -1.0960   -6.2420  -53.8410 C.3    87  ARG87       0.0489
     56  CD        -2.3120   -6.9320  -54.4280 C.3    87  ARG87       0.2205
     57  NE        -3.5140   -6.1150  -54.3600 N.pl3  87  ARG87      -0.0865
     58  CZ        -4.2490   -5.9300  -53.2640 C.cat  87  ARG87       0.5346
     59  NH1       -3.9000   -6.4660  -52.1030 N.pl3  87  ARG87       0.1354
     60  NH2       -5.3370   -5.1820  -53.3340 N.pl3  87  ARG87       0.1354
     61  N         -3.9650   -2.4790  -45.7060 N.3   128  ASP128     -0.1239
     62  CA        -5.2920   -1.9270  -45.3820 C.3   128  ASP128      0.1674
     63  C         -5.2140   -0.6990  -44.4760 C.2   128  ASP128      0.2266
     64  O         -6.0400    0.1970  -44.5850 O.2   128  ASP128     -0.2867
     65  CB        -6.1770   -2.9580  -44.6760 C.3   128  ASP128      0.1410
     66  CG        -6.6680   -4.0730  -45.5950 C.2   128  ASP128      0.3668
     67  OD1       -6.3240   -4.1080  -46.8040 O.co2 128  ASP128     -0.2456
     68  OD2       -7.4200   -4.9320  -45.0730 O.co2 128  ASP128     -0.2456
     69  N         -4.8690    2.8440  -46.1660 N.3   131  ASP131     -0.1239
     70  CA        -5.9650    3.1370  -47.0780 C.3   131  ASP131      0.1674
     71  C         -6.3280    4.6160  -47.0220 C.2   131  ASP131      0.2266
     72  O         -6.9120    5.0780  -46.0470 O.2   131  ASP131     -0.2867
     73  CB        -7.1490    2.2600  -46.6640 C.3   131  ASP131      0.1410
     74  CG        -8.3510    2.3870  -47.5690 C.2   131  ASP131      0.3668
     75  OD1       -8.4130    3.2960  -48.4190 O.co2 131  ASP131     -0.2456
     76  OD2       -9.2530    1.5430  -47.4070 O.co2 131  ASP131     -0.2456
     77  N         -8.5500    6.5030  -48.5090 N.3   133  ARG133     -0.1245
     78  CA        -9.8660    6.9570  -48.9430 C.3   133  ARG133      0.1563
     79  C        -10.6620    7.7420  -47.9000 C.2   133  ARG133      0.2260
     80  O        -11.5230    8.5470  -48.2630 O.2   133  ARG133     -0.2867
     81  CB       -10.7120    5.7830  -49.4270 C.3   133  ARG133      0.0307
     82  CG       -11.2970    4.9210  -48.3220 C.3   133  ARG133      0.0489
     83  CD       -11.1480    3.4590  -48.6530 C.3   133  ARG133      0.2205
     84  NE       -12.2530    2.9140  -49.3920 N.pl3 133  ARG133     -0.0865
     85  CZ       -12.1940    1.8780  -50.2300 C.cat 133  ARG133      0.5346
     86  NH1      -11.0540    1.2450  -50.5120 N.pl3 133  ARG133      0.1354
     87  NH2      -13.3140    1.4820  -50.8080 N.pl3 133  ARG133      0.1354
@<TRIPOS>BOND
     1    31    29    1
     2    30    29    1
     3    29    26    1
     4    25    26    1
     5    26    27    1
     6     1     2    1
     7    37    36    1
     8     2     5    1
     9     2     3    1
    10    20    19    2
    11    38    36    1
    12    27    32   am
    13    27    28    2
    14    32    33    1
    15     5     6    1
    16     5     7    1
    17    36    33    1
    18     6     8    1
    19     3     4    2
    20    19    18    1
    21    35    34    2
    22    33    34    1
    23    17    18    1
    24    34    39   am
    25    18    21    1
    26    42    41    2
    27    21    22    1
    28    41    40    1
    29    39    40    1
    30    22    23    1
    31    22    24    1
    32    40    43    1
    33     9    10    1
    34    16    14    1
    35    43    44    1
    36    10    13    1
    37    10    11    1
    38    14    13    1
    39    14    15    1
    40    56    57    1
    41    56    55    1
    42    57    58    2
    43    54    55    1
    44    54    51    1
    45    44    45   ar
    46    44    46   ar
    47    45    47   ar
    48    12    11    2
    49    52    51    1
    50    52    53    2
    51    60    58    1
    52    58    59    1
    53    46    48   ar
    54    51    50    1
    55    47    49   ar
    56    48    49   ar
    57    87    85    1
    58    86    85    1
    59    85    84    2
    60    81    78    1
    61    81    82    1
    62    84    83    1
    63    78    77    1
    64    78    79    1
    65    83    82    1
    66    75    74   ar
    67    80    79    2
    68    74    76   ar
    69    74    73    1
    70    70    71    1
    71    70    73    1
    72    70    69    1
    73    71    72    2
    74    67    66   ar
    75    61    62    1
    76    66    68   ar
    77    66    65    1
    78    62    65    1
    79    62    63    1
    80    64    63    2
