@<TRIPOS>MOLECULE
tmp/2ha5B02.pdb
 93 86 0 0 0
SMALL
GASTEIGER

@<TRIPOS>ATOM
      1  N         -3.4420  -12.2330  -37.2170 N.3    78  GLU78      -0.1245
      2  CA        -3.6970  -10.9020  -37.7730 C.3    78  GLU78       0.1567
      3  C         -2.6840   -9.8490  -37.3440 C.2    78  GLU78       0.2260
      4  O         -2.3250   -8.9940  -38.1390 O.2    78  GLU78      -0.2867
      5  CB        -5.0980  -10.4190  -37.3910 C.3    78  GLU78       0.0388
      6  CG        -5.3520   -8.9450  -37.6950 C.3    78  GLU78       0.1160
      7  CD        -6.7910   -8.5280  -37.4480 C.2    78  GLU78       0.3649
      8  OE1       -7.0260   -7.6640  -36.5640 O.co2  78  GLU78      -0.2457
      9  OE2       -7.6860   -9.0760  -38.1320 O.co2  78  GLU78      -0.2457
     10  N          0.2890  -10.5410  -39.5260 N.3    81  GLU81      -0.1231
     11  CA        -0.0410  -10.6890  -40.9470 C.3    81  GLU81       0.1699
     12  C         -0.5940   -9.4160  -41.5700 C.2    81  GLU81       0.2592
     13  O         -0.5260   -9.2480  -42.7830 O.2    81  GLU81      -0.2718
     14  CB        -1.0660  -11.8080  -41.1540 C.3    81  GLU81       0.0402
     15  CG        -0.5710  -13.2160  -40.8200 C.3    81  GLU81       0.1161
     16  CD         0.3180  -13.8360  -41.8870 C.2    81  GLU81       0.3649
     17  OE1        0.6600  -13.1460  -42.8900 O.co2  81  GLU81      -0.2457
     18  OE2        0.6830  -15.0260  -41.7000 O.co2  81  GLU81      -0.2457
     19  N         -1.1560   -8.5330  -40.7500 N.am   82  MET82      -0.1979
     20  CA        -1.6630   -7.2530  -41.2410 C.3    82  MET82       0.1605
     21  C         -0.5430   -6.3530  -41.7840 C.2    82  MET82       0.2287
     22  O         -0.8310   -5.3690  -42.4760 O.2    82  MET82      -0.2864
     23  CB        -2.4290   -6.5030  -40.1450 C.3    82  MET82       0.0413
     24  CG        -1.6010   -6.1340  -38.9210 C.3    82  MET82       0.0598
     25  SD        -2.5580   -5.3140  -37.6300 S.3    82  MET82      -0.1393
     26  CE        -2.6420   -3.6550  -38.3060 C.3    82  MET82       0.0692
     27  N         -3.9650   -2.4790  -45.7060 N.3   128  ASP128     -0.1225
     28  CA        -5.2920   -1.9270  -45.3820 C.3   128  ASP128      0.1805
     29  C         -5.2140   -0.6990  -44.4760 C.2   128  ASP128      0.2597
     30  O         -6.0400    0.1970  -44.5850 O.2   128  ASP128     -0.2718
     31  CB        -6.1770   -2.9580  -44.6760 C.3   128  ASP128      0.1424
     32  CG        -6.6680   -4.0730  -45.5950 C.2   128  ASP128      0.3668
     33  OD1       -6.3240   -4.1080  -46.8040 O.co2 128  ASP128     -0.2456
     34  OD2       -7.4200   -4.9320  -45.0730 O.co2 128  ASP128     -0.2456
     35  N         -4.2370   -0.6640  -43.5750 N.am  129  VAL129     -0.1980
     36  CA        -4.1120    0.4510  -42.6180 C.3   129  VAL129      0.1595
     37  C         -3.6150    1.7550  -43.2550 C.2   129  VAL129      0.2287
     38  O         -3.7000    2.8180  -42.6230 O.2   129  VAL129     -0.2864
     39  CB        -3.2510    0.0650  -41.3770 C.3   129  VAL129      0.0276
     40  CG1       -4.0380   -0.8830  -40.4770 C.3   129  VAL129      0.0022
     41  CG2       -1.9240   -0.5780  -41.7810 C.3   129  VAL129      0.0022
     42  N        -10.2310   -3.5870  -31.0640 N.3   426  THR426     -0.1203
     43  CA       -10.1380   -4.7750  -31.8980 C.3   426  THR426      0.1994
     44  C         -8.7100   -5.3610  -32.0060 C.2   426  THR426      0.2617
     45  O         -8.4820   -6.2890  -32.7700 O.2   426  THR426     -0.2717
     46  CB       -10.7090   -4.4540  -33.2960 C.3   426  THR426      0.1784
     47  OG1      -10.0600   -3.2900  -33.8170 O.3   426  THR426     -0.2211
     48  CG2      -12.2120   -4.1810  -33.2010 C.3   426  THR426      0.0376
     49  N         -7.7720   -4.8480  -31.2080 N.am  427  LEU427     -0.1979
     50  CA        -6.3710   -5.3100  -31.2290 C.3   427  LEU427      0.1596
     51  C         -6.2400   -6.7870  -30.8540 C.2   427  LEU427      0.2287
     52  O         -6.8670   -7.2410  -29.8950 O.2   427  LEU427     -0.2864
     53  CB        -5.5230   -4.4540  -30.2810 C.3   427  LEU427      0.0297
     54  CG        -3.9970   -4.5400  -30.3630 C.3   427  LEU427      0.0022
     55  CD1       -3.4970   -4.3400  -31.7680 C.3   427  LEU427      0.0001
     56  CD2       -3.3880   -3.4960  -29.4530 C.3   427  LEU427      0.0001
     57  N         -3.9590    3.0190  -37.9390 N.3   442  GLU442     -0.1245
     58  CA        -5.3430    2.7550  -38.3360 C.3   442  GLU442      0.1567
     59  C         -6.3150    3.8770  -37.9180 C.2   442  GLU442      0.2260
     60  O         -7.3220    4.0970  -38.5920 O.2   442  GLU442     -0.2867
     61  CB        -5.8160    1.4060  -37.7900 C.3   442  GLU442      0.0388
     62  CG        -5.8010    1.2690  -36.2590 C.3   442  GLU442      0.1160
     63  CD        -5.8250   -0.1950  -35.8210 C.2   442  GLU442      0.3649
     64  OE1       -6.9050   -0.6680  -35.3750 O.co2 442  GLU442     -0.2457
     65  OE2       -4.7710   -0.8680  -35.9470 O.co2 442  GLU442     -0.2457
     66  N         -9.7750    4.4340  -40.3340 N.3   447  LEU447     -0.1245
     67  CA       -10.4390    3.1480  -40.5390 C.3   447  LEU447      0.1561
     68  C        -11.6830    2.9390  -39.6710 C.2   447  LEU447      0.2260
     69  O        -12.6600    2.3690  -40.1450 O.2   447  LEU447     -0.2867
     70  CB        -9.4600    1.9870  -40.3540 C.3   447  LEU447      0.0270
     71  CG        -8.6910    1.5670  -41.6100 C.3   447  LEU447      0.0019
     72  CD1       -7.7560    2.6810  -42.0870 C.3   447  LEU447      0.0001
     73  CD2       -7.9270    0.2760  -41.3370 C.3   447  LEU447      0.0001
     74  N        -15.7890   -2.6920  -39.6750 N.3   453  LEU453     -0.1245
     75  CA       -14.5770   -3.0610  -38.9390 C.3   453  LEU453      0.1561
     76  C        -14.7780   -3.1690  -37.4240 C.2   453  LEU453      0.2260
     77  O        -13.8610   -3.5650  -36.7070 O.2   453  LEU453     -0.2867
     78  CB       -13.4410   -2.0700  -39.2470 C.3   453  LEU453      0.0270
     79  CG       -13.0260   -1.9200  -40.7200 C.3   453  LEU453      0.0019
     80  CD1      -11.9160   -0.8940  -40.8730 C.3   453  LEU453      0.0001
     81  CD2      -12.5990   -3.2640  -41.3190 C.3   453  LEU453      0.0001
     82  N        -15.1190   -1.1560  -34.7670 N.3   455  TYR455     -0.1241
     83  CA       -14.6550   -0.2170  -33.7470 C.3   455  TYR455      0.1605
     84  C        -15.8670    0.3800  -33.0350 C.2   455  TYR455      0.2264
     85  O        -16.9850    0.3290  -33.5550 O.2   455  TYR455     -0.2867
     86  CB       -13.8510    0.9260  -34.3770 C.3   455  TYR455      0.0534
     87  CG       -12.5440    0.5340  -35.0350 C.ar  455  TYR455     -0.0201
     88  CD1      -11.3540    0.5080  -34.3100 C.ar  455  TYR455     -0.0009
     89  CD2      -12.4940    0.2170  -36.3810 C.ar  455  TYR455     -0.0009
     90  CE1      -10.1560    0.1580  -34.9110 C.ar  455  TYR455      0.0417
     91  CE2      -11.3010   -0.1250  -36.9970 C.ar  455  TYR455      0.0417
     92  CZ       -10.1350   -0.1500  -36.2570 C.ar  455  TYR455      0.1957
     93  OH        -8.9510   -0.4840  -36.8650 O.3   455  TYR455     -0.2866
@<TRIPOS>BOND
     1    33    32   ar
     2    27    28    1
     3    32    34   ar
     4    32    31    1
     5    28    31    1
     6    28    29    1
     7    30    29    2
     8    29    35   am
     9    35    36    1
    10    37    38    2
    11    37    36    1
    12    17    16   ar
    13    13    12    2
    14    36    39    1
    15    22    21    2
    16    72    71    1
    17    16    18   ar
    18    16    15    1
    19    21    20    1
    20    41    39    1
    21    71    73    1
    22    71    70    1
    23    12    11    1
    24    12    19   am
    25    39    40    1
    26    81    79    1
    27    20    19    1
    28    20    23    1
    29    14    11    1
    30    14    15    1
    31    11    10    1
    32    80    79    1
    33    79    78    1
    34    67    70    1
    35    67    66    1
    36    67    68    1
    37    69    68    2
    38    23    24    1
    39    74    75    1
    40    78    75    1
    41    75    76    1
    42    24    25    1
    43    60    59    2
    44    58    57    1
    45    58    59    1
    46    58    61    1
    47    26    25    1
    48     4     3    2
    49     9     7   ar
    50    61    62    1
    51     2     5    1
    52     2     3    1
    53     2     1    1
    54     6     7    1
    55     6     5    1
    56     7     8   ar
    57    76    77    2
    58    91    89   ar
    59    91    92   ar
    60    93    92    1
    61    89    87   ar
    62    62    63    1
    63    92    90   ar
    64    65    63   ar
    65    63    64   ar
    66    87    86    1
    67    87    88   ar
    68    90    88   ar
    69    82    83    1
    70    86    83    1
    71    47    46    1
    72    83    84    1
    73    85    84    2
    74    46    48    1
    75    46    43    1
    76    45    44    2
    77    44    43    1
    78    44    49   am
    79    43    42    1
    80    55    54    1
    81    50    49    1
    82    50    51    1
    83    50    53    1
    84    51    52    2
    85    54    53    1
    86    54    56    1
