@<TRIPOS>MOLECULE
tmp/2ha6B01.pdb
 120 113 0 0 0
SMALL
GASTEIGER

@<TRIPOS>ATOM
      1  N         -3.3370  -12.5350  -37.4410 N.3    78  GLU78      -0.1245
      2  CA        -3.5410  -11.1880  -37.9860 C.3    78  GLU78       0.1567
      3  C         -2.4900  -10.1850  -37.5160 C.2    78  GLU78       0.2260
      4  O         -1.9970   -9.3800  -38.3040 O.2    78  GLU78      -0.2867
      5  CB        -4.9380  -10.6660  -37.6460 C.3    78  GLU78       0.0388
      6  CG        -5.1290   -9.1860  -37.9670 C.3    78  GLU78       0.1160
      7  CD        -6.5760   -8.7230  -37.8440 C.2    78  GLU78       0.3649
      8  OE1       -6.8340   -7.8460  -36.9690 O.co2  78  GLU78      -0.2457
      9  OE2       -7.4420   -9.2330  -38.6170 O.co2  78  GLU78      -0.2457
     10  N          0.4610  -10.8510  -39.6710 N.3    81  GLU81      -0.1231
     11  CA         0.1990  -10.9930  -41.0910 C.3    81  GLU81       0.1699
     12  C         -0.2300   -9.6910  -41.7230 C.2    81  GLU81       0.2592
     13  O         -0.0650   -9.5120  -42.9140 O.2    81  GLU81      -0.2718
     14  CB        -0.8800  -12.0530  -41.3450 C.3    81  GLU81       0.0402
     15  CG        -0.4820  -13.5070  -41.0300 C.3    81  GLU81       0.1161
     16  CD         0.5520  -14.1130  -41.9850 C.2    81  GLU81       0.3649
     17  OE1        0.9450  -13.4300  -42.9790 O.co2  81  GLU81      -0.2457
     18  OE2        0.9690  -15.2800  -41.7250 O.co2  81  GLU81      -0.2457
     19  N         -0.7970   -8.7900  -40.9280 N.am   82  MET82      -0.1979
     20  CA        -1.2970   -7.5140  -41.4390 C.3    82  MET82       0.1605
     21  C         -0.1610   -6.6230  -41.9470 C.2    82  MET82       0.2287
     22  O         -0.4180   -5.6040  -42.6240 O.2    82  MET82      -0.2864
     23  CB        -2.1100   -6.7690  -40.3580 C.3    82  MET82       0.0413
     24  CG        -1.3080   -6.3040  -39.1310 C.3    82  MET82       0.0598
     25  SD        -2.2990   -5.4920  -37.8350 S.3    82  MET82      -0.1393
     26  CE        -2.3740   -3.7960  -38.4160 C.3    82  MET82       0.0692
     27  N          2.5400   -8.1990  -43.4810 N.3    84  ASN84      -0.1226
     28  CA         3.1320   -8.9910  -44.5680 C.3    84  ASN84       0.1770
     29  C          2.6130   -8.5740  -45.9640 C.2    84  ASN84       0.2439
     30  O          1.5400   -7.9430  -46.0910 O.2    84  ASN84      -0.2733
     31  CB         2.9050  -10.5060  -44.3730 C.3    84  ASN84       0.1168
     32  CG         3.9370  -11.1740  -43.4420 C.2    84  ASN84       0.2627
     33  OD1        5.0420  -10.6670  -43.2120 O.2    84  ASN84      -0.2716
     34  ND2        3.5680  -12.3480  -42.9240 N.am   84  ASN84      -0.0877
     35  N          3.3860   -8.9180  -47.0130 N.am   85  PRO85      -0.2718
     36  CA         3.0020   -8.6050  -48.3760 C.3    85  PRO85       0.1535
     37  C          1.6030   -9.1010  -48.6960 C.2    85  PRO85       0.2598
     38  O          1.2700  -10.2490  -48.3820 O.2    85  PRO85      -0.2715
     39  CB         4.0370   -9.3720  -49.2020 C.3    85  PRO85       0.0310
     40  CG         5.2340   -9.3970  -48.3270 C.3    85  PRO85       0.0237
     41  CD         4.6830   -9.6220  -46.9700 C.3    85  PRO85       0.0939
     42  N          0.7920   -8.2370  -49.2910 N.am   86  ASN86      -0.1973
     43  CA        -0.5360   -8.6320  -49.7200 C.3    86  ASN86       0.1688
     44  C         -0.6700   -8.6260  -51.2370 C.2    86  ASN86       0.2292
     45  O         -1.7690   -8.8070  -51.7550 O.2    86  ASN86      -0.2864
     46  CB        -1.6270   -7.7840  -49.0460 C.3    86  ASN86       0.1181
     47  CG        -1.5550   -6.3230  -49.4180 C.2    86  ASN86       0.2629
     48  OD1       -0.5510   -5.8560  -49.9420 O.2    86  ASN86      -0.2716
     49  ND2       -2.6320   -5.5960  -49.1560 N.am   86  ASN86      -0.0877
     50  N         -3.7130   -2.8220  -45.8520 N.3   128  ASP128     -0.1225
     51  CA        -5.0290   -2.3110  -45.5000 C.3   128  ASP128      0.1805
     52  C         -4.9620   -1.1030  -44.5730 C.2   128  ASP128      0.2597
     53  O         -5.7600   -0.1890  -44.7030 O.2   128  ASP128     -0.2718
     54  CB        -5.8740   -3.3930  -44.8170 C.3   128  ASP128      0.1424
     55  CG        -6.3410   -4.5070  -45.7710 C.2   128  ASP128      0.3668
     56  OD1       -5.9830   -4.5210  -46.9760 O.co2 128  ASP128     -0.2456
     57  OD2       -7.0770   -5.3870  -45.2780 O.co2 128  ASP128     -0.2456
     58  N         -4.0310   -1.1100  -43.6240 N.am  129  VAL129     -0.1980
     59  CA        -3.9170   -0.0010  -42.6670 C.3   129  VAL129      0.1595
     60  C         -3.4570    1.3140  -43.3010 C.2   129  VAL129      0.2287
     61  O         -3.5770    2.3570  -42.6540 O.2   129  VAL129     -0.2864
     62  CB        -3.0210   -0.3500  -41.4380 C.3   129  VAL129      0.0276
     63  CG1       -3.6280   -1.4950  -40.6760 C.3   129  VAL129      0.0022
     64  CG2       -1.6070   -0.6780  -41.8500 C.3   129  VAL129      0.0022
     65  N        -10.0870   -4.1510  -31.2170 N.3   426  THR426     -0.1218
     66  CA        -9.9670   -5.3080  -32.1040 C.3   426  THR426      0.1862
     67  C         -8.5360   -5.8840  -32.2220 C.2   426  THR426      0.2287
     68  O         -8.2900   -6.7790  -33.0150 O.2   426  THR426     -0.2866
     69  CB       -10.4860   -4.9110  -33.5180 C.3   426  THR426      0.1770
     70  OG1       -9.6650   -3.8570  -34.0650 O.3   426  THR426     -0.2211
     71  CG2      -11.9680   -4.4460  -33.4370 C.3   426  THR426      0.0375
     72  N          0.4370    0.7190  -34.0380 N.3   439  TYR439     -0.1241
     73  CA        -1.0330    0.5530  -33.8770 C.3   439  TYR439      0.1605
     74  C         -1.8860    1.8390  -33.7060 C.2   439  TYR439      0.2264
     75  O         -3.0910    1.7730  -33.4460 O.2   439  TYR439     -0.2867
     76  CB        -1.3250   -0.5190  -32.8140 C.3   439  TYR439      0.0534
     77  CG        -1.0280   -1.8590  -33.3870 C.ar  439  TYR439     -0.0201
     78  CD1        0.2440   -2.4150  -33.2980 C.ar  439  TYR439     -0.0009
     79  CD2       -1.9990   -2.5400  -34.1130 C.ar  439  TYR439     -0.0009
     80  CE1        0.5370   -3.6540  -33.8990 C.ar  439  TYR439      0.0417
     81  CE2       -1.7270   -3.7640  -34.6980 C.ar  439  TYR439      0.0417
     82  CZ        -0.4590   -4.3150  -34.5930 C.ar  439  TYR439      0.1957
     83  OH        -0.2230   -5.5400  -35.1920 O.3   439  TYR439     -0.2866
     84  N         -3.7680    2.6150  -38.0880 N.3   442  GLU442     -0.1245
     85  CA        -5.1640    2.3260  -38.4810 C.3   442  GLU442      0.1567
     86  C         -6.1900    3.4000  -38.0730 C.2   442  GLU442      0.2260
     87  O         -7.2260    3.5240  -38.7220 O.2   442  GLU442     -0.2867
     88  CB        -5.5990    0.9530  -37.9530 C.3   442  GLU442      0.0388
     89  CG        -5.5320    0.7660  -36.4080 C.3   442  GLU442      0.1160
     90  CD        -5.4860   -0.7120  -35.9930 C.2   442  GLU442      0.3649
     91  OE1       -6.5330   -1.2690  -35.5520 O.co2 442  GLU442     -0.2457
     92  OE2       -4.4020   -1.3160  -36.1390 O.co2 442  GLU442     -0.2457
     93  N         -9.6280    3.9260  -40.4630 N.3   447  LEU447     -0.1245
     94  CA       -10.2680    2.6310  -40.6820 C.3   447  LEU447      0.1561
     95  C        -11.4900    2.3360  -39.7970 C.2   447  LEU447      0.2260
     96  O        -12.4140    1.6320  -40.2400 O.2   447  LEU447     -0.2867
     97  CB        -9.2650    1.4760  -40.5650 C.3   447  LEU447      0.0270
     98  CG        -8.5240    1.0960  -41.8520 C.3   447  LEU447      0.0019
     99  CD1       -7.5440    2.2350  -42.2650 C.3   447  LEU447      0.0001
    100  CD2       -7.8180   -0.2430  -41.6440 C.3   447  LEU447      0.0001
    101  N        -15.5620   -3.2290  -39.9110 N.3   453  LEU453     -0.1245
    102  CA       -14.3440   -3.6100  -39.1920 C.3   453  LEU453      0.1561
    103  C        -14.5640   -3.8040  -37.6960 C.2   453  LEU453      0.2260
    104  O        -13.6630   -4.2580  -36.9920 O.2   453  LEU453     -0.2867
    105  CB       -13.2150   -2.5960  -39.4290 C.3   453  LEU453      0.0270
    106  CG       -12.6990   -2.4840  -40.8700 C.3   453  LEU453      0.0019
    107  CD1      -11.4730   -1.5610  -40.9350 C.3   453  LEU453      0.0001
    108  CD2      -12.3900   -3.8710  -41.4590 C.3   453  LEU453      0.0001
    109  N        -14.9220   -1.8940  -34.9830 N.3   455  TYR455     -0.1241
    110  CA       -14.4610   -0.9620  -33.9490 C.3   455  TYR455      0.1605
    111  C        -15.6700   -0.4000  -33.2180 C.2   455  TYR455      0.2264
    112  O        -16.7860   -0.4640  -33.7180 O.2   455  TYR455     -0.2867
    113  CB       -13.7250    0.2140  -34.5820 C.3   455  TYR455      0.0534
    114  CG       -12.3790   -0.0900  -35.1850 C.ar  455  TYR455     -0.0201
    115  CD1      -11.2230   -0.0820  -34.4030 C.ar  455  TYR455     -0.0009
    116  CD2      -12.2570   -0.3640  -36.5340 C.ar  455  TYR455     -0.0009
    117  CE1       -9.9790   -0.3440  -34.9600 C.ar  455  TYR455      0.0417
    118  CE2      -11.0160   -0.6090  -37.1100 C.ar  455  TYR455      0.0417
    119  CZ        -9.8750   -0.5950  -36.3240 C.ar  455  TYR455      0.1957
    120  OH        -8.6520   -0.8590  -36.9100 O.3   455  TYR455     -0.2866
@<TRIPOS>BOND
     1    45    44    2
     2    44    43    1
     3    48    47    2
     4    43    42    1
     5    43    46    1
     6    47    49   am
     7    47    46    1
     8    42    37   am
     9    39    36    1
    10    39    40    1
    11    37    38    2
    12    37    36    1
    13    36    35    1
    14    40    41    1
    15    35    41    1
    16    35    29   am
    17    56    55   ar
    18    30    29    2
    19    29    28    1
    20    50    51    1
    21    55    57   ar
    22    55    54    1
    23    51    54    1
    24    51    52    1
    25    53    52    2
    26    52    58   am
    27    28    31    1
    28    28    27    1
    29    31    32    1
    30    58    59    1
    31    32    33    2
    32    32    34   am
    33    60    59    1
    34    60    61    2
    35    17    16   ar
    36    13    12    2
    37    59    62    1
    38    22    21    2
    39    99    98    1
    40    16    18   ar
    41    16    15    1
    42    21    20    1
    43    98   100    1
    44    98    97    1
    45    64    62    1
    46    12    11    1
    47    12    19   am
    48   108   106    1
    49    20    19    1
    50    20    23    1
    51    62    63    1
    52    14    11    1
    53    14    15    1
    54    11    10    1
    55   107   106    1
    56   106   105    1
    57    94    97    1
    58    94    93    1
    59    94    95    1
    60    23    24    1
    61    96    95    2
    62   101   102    1
    63   105   102    1
    64   102   103    1
    65    24    25    1
    66    87    86    2
    67     9     7   ar
    68    85    84    1
    69    85    86    1
    70    85    88    1
    71    26    25    1
    72     4     3    2
    73     2     5    1
    74     2     3    1
    75     2     1    1
    76     6     7    1
    77     6     5    1
    78    88    89    1
    79     7     8   ar
    80   103   104    2
    81   118   116   ar
    82   118   119   ar
    83   120   119    1
    84   116   114   ar
    85    89    90    1
    86   119   117   ar
    87    92    90   ar
    88    90    91   ar
    89    83    82    1
    90   114   113    1
    91   114   115   ar
    92   109   110    1
    93   117   115   ar
    94    81    82   ar
    95    81    79   ar
    96    82    80   ar
    97   113   110    1
    98    79    77   ar
    99    70    69    1
   100    72    73    1
   101   110   111    1
   102    80    78   ar
   103    73    74    1
   104    73    76    1
   105   112   111    2
   106    74    75    2
   107    69    71    1
   108    69    66    1
   109    77    78   ar
   110    77    76    1
   111    68    67    2
   112    67    66    1
   113    66    65    1
