@<TRIPOS>MOLECULE
tmp/2ha6B00.pdb
 186 187 0 0 0
SMALL
GASTEIGER

@<TRIPOS>ATOM
      1  N         11.7340   -9.8430  -47.1160 N.3    69  TYR69      -0.1241
      2  CA        11.5260  -10.8880  -46.1190 C.3    69  TYR69       0.1605
      3  C         10.0600  -10.9560  -45.7210 C.2    69  TYR69       0.2264
      4  O          9.3760   -9.9250  -45.5730 O.2    69  TYR69      -0.2867
      5  CB        12.4030  -10.5760  -44.8990 C.3    69  TYR69       0.0534
      6  CG        12.2220  -11.4900  -43.7150 C.ar   69  TYR69      -0.0201
      7  CD1       11.3080  -11.1790  -42.7050 C.ar   69  TYR69      -0.0009
      8  CD2       12.9680  -12.6440  -43.5890 C.ar   69  TYR69      -0.0009
      9  CE1       11.1350  -12.0050  -41.6070 C.ar   69  TYR69       0.0417
     10  CE2       12.8080  -13.4770  -42.5000 C.ar   69  TYR69       0.0417
     11  CZ        11.8930  -13.1520  -41.5030 C.ar   69  TYR69       0.1957
     12  OH        11.7390  -13.9760  -40.4010 O.3    69  TYR69      -0.2866
     13  N          7.4480  -12.5290  -42.8610 N.3    71  ASP71      -0.1239
     14  CA         7.4200  -12.9880  -41.4860 C.3    71  ASP71       0.1674
     15  C          6.7630  -14.3550  -41.3220 C.2    71  ASP71       0.2266
     16  O          5.7140  -14.6280  -41.8970 O.2    71  ASP71      -0.2867
     17  CB         6.6920  -11.9780  -40.6010 C.3    71  ASP71       0.1410
     18  CG         7.0520  -12.1270  -39.1440 C.2    71  ASP71       0.3668
     19  OD1        6.3460  -12.8460  -38.4050 O.co2  71  ASP71      -0.2456
     20  OD2        8.0720  -11.5420  -38.7510 O.co2  71  ASP71      -0.2456
     21  N          1.0780   -6.9820  -41.5890 N.3    83  TRP83      -0.1241
     22  CA         2.2580   -6.2620  -42.0480 C.3    83  TRP83       0.1605
     23  C          2.9440   -6.9580  -43.2020 C.2    83  TRP83       0.2264
     24  O          3.8370   -6.3760  -43.8170 O.2    83  TRP83      -0.2867
     25  CB         3.2550   -6.0960  -40.9000 C.3    83  TRP83       0.0550
     26  CG         2.6380   -5.5120  -39.6940 C.ar   83  TRP83       0.0003
     27  CD1        2.3480   -6.1600  -38.5440 C.ar   83  TRP83       0.0946
     28  CD2        2.1780   -4.1720  -39.5350 C.ar   83  TRP83       0.0152
     29  NE1        1.7580   -5.3040  -37.6600 N.ar   83  TRP83      -0.2442
     30  CE2        1.6370   -4.0720  -38.2420 C.ar   83  TRP83       0.0810
     31  CE3        2.1850   -3.0400  -40.3530 C.ar   83  TRP83       0.0012
     32  CZ2        1.1000   -2.8790  -37.7340 C.ar   83  TRP83       0.0191
     33  CZ3        1.6510   -1.8470  -39.8560 C.ar   83  TRP83       0.0001
     34  CH2        1.1130   -1.7810  -38.5530 C.ar   83  TRP83       0.0015
     35  N          6.7380    2.1430  -42.9930 N.3   117  GLY117     -0.1210
     36  CA         7.8000    1.5360  -42.1880 C.3   117  GLY117      0.1956
     37  C          7.9050    0.0350  -42.4340 C.2   117  GLY117      0.2612
     38  O          7.2230   -0.5120  -43.2860 O.2   117  GLY117     -0.2717
     39  N          8.7690   -0.6160  -41.6700 N.am  118  GLY118     -0.1942
     40  CA         9.1750   -1.9900  -41.9040 C.3   118  GLY118      0.2014
     41  C         10.6630   -2.2450  -41.7480 C.2   118  GLY118      0.2639
     42  O         11.2040   -3.1160  -42.3980 O.2   118  GLY118     -0.2714
     43  N         11.3290   -1.4830  -40.8890 N.am  119  GLY119     -0.1954
     44  CA        12.7670   -1.6480  -40.6170 C.3   119  GLY119      0.1869
     45  C         13.7100   -1.4300  -41.7780 C.2   119  GLY119      0.2309
     46  O         14.8590   -1.8910  -41.7460 O.2   119  GLY119     -0.2863
     47  N         13.4620   -3.0960  -44.2760 N.3   121  TYR121     -0.1227
     48  CA        13.6050   -4.4470  -44.8860 C.3   121  TYR121      0.1736
     49  C         12.2560   -4.9790  -45.4110 C.2   121  TYR121      0.2596
     50  O         12.1880   -6.0680  -45.9890 O.2   121  TYR121     -0.2718
     51  CB        14.2470   -5.4450  -43.8890 C.3   121  TYR121      0.0548
     52  CG        13.3280   -5.8540  -42.7760 C.ar  121  TYR121     -0.0200
     53  CD1       12.4000   -6.8690  -42.9690 C.ar  121  TYR121     -0.0009
     54  CD2       13.3490   -5.2210  -41.5530 C.ar  121  TYR121     -0.0009
     55  CE1       11.5070   -7.2530  -41.9900 C.ar  121  TYR121      0.0417
     56  CE2       12.4390   -5.5920  -40.5410 C.ar  121  TYR121      0.0417
     57  CZ        11.5220   -6.6300  -40.7820 C.ar  121  TYR121      0.1957
     58  OH        10.6160   -7.0620  -39.8350 O.3   121  TYR121     -0.2866
     59  N         11.1870   -4.2020  -45.2350 N.am  122  SER122     -0.1952
     60  CA         9.8580   -4.6920  -45.5050 C.3   122  SER122      0.1924
     61  C          8.8550   -3.5580  -45.6120 C.2   122  SER122      0.2314
     62  O          9.1960   -2.4080  -45.4070 O.2   122  SER122     -0.2863
     63  CB         9.4440   -5.6200  -44.3720 C.3   122  SER122      0.2116
     64  OG         9.4080   -4.8850  -43.1540 O.3   122  SER122     -0.2180
     65  N         -2.9450    1.2610  -44.5470 N.3   130  TYR130     -0.1241
     66  CA        -2.5300    2.4550  -45.3140 C.3   130  TYR130      0.1605
     67  C         -3.5340    2.9080  -46.3590 C.2   130  TYR130      0.2264
     68  O         -3.2080    3.7280  -47.2040 O.2   130  TYR130     -0.2867
     69  CB        -1.1940    2.2230  -46.0170 C.3   130  TYR130      0.0534
     70  CG        -0.1110    1.6810  -45.1160 C.ar  130  TYR130     -0.0201
     71  CD1       -0.0320    2.0460  -43.7740 C.ar  130  TYR130     -0.0009
     72  CD2        0.8380    0.8020  -45.6080 C.ar  130  TYR130     -0.0009
     73  CE1        0.9710    1.5400  -42.9490 C.ar  130  TYR130      0.0417
     74  CE2        1.8520    0.3060  -44.8020 C.ar  130  TYR130      0.0417
     75  CZ         1.9200    0.6760  -43.4750 C.ar  130  TYR130      0.1957
     76  OH         2.9140    0.1520  -42.6830 O.3   130  TYR130     -0.2866
     77  N          5.5910    6.3260  -40.5220 N.3   199  GLU199     -0.1231
     78  CA         5.7660    5.6740  -39.2350 C.3   199  GLU199      0.1699
     79  C          7.0120    4.7540  -39.2020 C.2   199  GLU199      0.2592
     80  O          7.3320    4.0830  -40.1910 O.2   199  GLU199     -0.2718
     81  CB         4.5000    4.9030  -38.8860 C.3   199  GLU199      0.0402
     82  CG         4.4440    4.3550  -37.4530 C.3   199  GLU199      0.1161
     83  CD         4.9300    2.9110  -37.3200 C.2   199  GLU199      0.3649
     84  OE1        5.0790    2.2370  -38.3460 O.co2 199  GLU199     -0.2457
     85  OE2        5.1600    2.4510  -36.1800 O.co2 199  GLU199     -0.2457
     86  N          7.7140    4.7740  -38.0640 N.am  200  ALA200     -0.1980
     87  CA         8.8850    3.9270  -37.8200 C.3   200  ALA200      0.1597
     88  C          9.9450    4.2010  -38.8970 C.2   200  ALA200      0.2287
     89  O         10.4010    5.3590  -39.0070 O.2   200  ALA200     -0.2864
     90  CB         8.4750    2.4420  -37.7110 C.3   200  ALA200      0.0319
     91  N         19.7960  -11.6890  -42.5660 N.3   276  TRP276     -0.1241
     92  CA        19.8430  -11.6480  -41.1080 C.3   276  TRP276      0.1605
     93  C         21.0210  -12.4380  -40.5600 C.2   276  TRP276      0.2264
     94  O         20.9640  -12.9420  -39.4440 O.2   276  TRP276     -0.2867
     95  CB        18.5090  -12.1560  -40.5450 C.3   276  TRP276      0.0550
     96  CG        17.4210  -11.3130  -41.0400 C.ar  276  TRP276      0.0003
     97  CD1       16.4820  -11.6290  -41.9840 C.ar  276  TRP276      0.0946
     98  CD2       17.1970   -9.9430  -40.6860 C.ar  276  TRP276      0.0152
     99  NE1       15.6660  -10.5360  -42.2180 N.ar  276  TRP276     -0.2442
    100  CE2       16.0860   -9.4930  -41.4330 C.ar  276  TRP276      0.0810
    101  CE3       17.8260   -9.0570  -39.8000 C.ar  276  TRP276      0.0012
    102  CZ2       15.5870   -8.1980  -41.3160 C.ar  276  TRP276      0.0191
    103  CZ3       17.3180   -7.7690  -39.6680 C.ar  276  TRP276      0.0001
    104  CH2       16.2100   -7.3510  -40.4250 C.ar  276  TRP276      0.0015
    105  N         15.4220   -4.7410  -32.7280 N.3   285  PHE285     -0.1227
    106  CA        15.3040   -3.3630  -33.2000 C.3   285  PHE285      0.1736
    107  C         16.5770   -2.9570  -33.9050 C.2   285  PHE285      0.2595
    108  O         17.0750   -1.8490  -33.7470 O.2   285  PHE285     -0.2718
    109  CB        14.9570   -2.3870  -32.0690 C.3   285  PHE285      0.0547
    110  CG        13.9810   -1.3040  -32.4800 C.ar  285  PHE285     -0.0202
    111  CD1       14.1850   -0.5490  -33.6270 C.ar  285  PHE285     -0.0042
    112  CD2       12.8360   -1.0580  -31.7270 C.ar  285  PHE285     -0.0042
    113  CE1       13.2880    0.4320  -34.0020 C.ar  285  PHE285     -0.0003
    114  CE2       11.9410   -0.0620  -32.1000 C.ar  285  PHE285     -0.0003
    115  CZ        12.1730    0.6750  -33.2490 C.ar  285  PHE285     -0.0000
    116  N         17.0820   -3.8760  -34.7080 N.am  286  ARG286     -0.1966
    117  CA        18.2880   -3.6640  -35.4790 C.3   286  ARG286      0.1729
    118  C         18.0700   -4.3140  -36.8320 C.2   286  ARG286      0.2616
    119  O         17.6220   -5.4640  -36.8970 O.2   286  ARG286     -0.2715
    120  CB        19.4710   -4.3250  -34.7640 C.3   286  ARG286      0.0348
    121  CG        20.6080   -3.3980  -34.3140 C.3   286  ARG286      0.0492
    122  CD        20.1020   -2.1240  -33.8070 C.3   286  ARG286      0.2205
    123  NE        20.8570   -1.5690  -32.6990 N.pl3 286  ARG286     -0.0865
    124  CZ        20.2830   -0.8320  -31.7460 C.cat 286  ARG286      0.5346
    125  NH1       18.9690   -0.5880  -31.7700 N.pl3 286  ARG286      0.1354
    126  NH2       21.0120   -0.3460  -30.7490 N.pl3 286  ARG286      0.1354
    127  N         18.4100   -3.5820  -37.8960 N.am  287  PHE287     -0.1974
    128  CA        18.1200   -3.9910  -39.2700 C.3   287  PHE287      0.1639
    129  C         19.4050   -3.9430  -40.0700 C.2   287  PHE287      0.2290
    130  O         20.2160   -3.0350  -39.8990 O.2   287  PHE287     -0.2864
    131  CB        17.0520   -3.0700  -39.8560 C.3   287  PHE287      0.0560
    132  CG        15.9720   -2.7290  -38.8700 C.ar  287  PHE287     -0.0200
    133  CD1       15.0820   -3.6970  -38.4420 C.ar  287  PHE287     -0.0042
    134  CD2       15.8950   -1.4740  -38.3090 C.ar  287  PHE287     -0.0042
    135  CE1       14.1090   -3.4010  -37.4990 C.ar  287  PHE287     -0.0003
    136  CE2       14.9140   -1.1710  -37.3770 C.ar  287  PHE287     -0.0003
    137  CZ        14.0300   -2.1340  -36.9720 C.ar  287  PHE287     -0.0000
    138  N          6.3490   -5.0140  -28.9130 N.3   327  TYR327     -0.1227
    139  CA         6.3100   -5.8090  -30.1410 C.3   327  TYR327      0.1736
    140  C          7.6230   -6.5420  -30.4090 C.2   327  TYR327      0.2595
    141  O          7.6190   -7.6960  -30.8640 O.2   327  TYR327     -0.2718
    142  CB         5.9780   -4.8890  -31.3380 C.3   327  TYR327      0.0548
    143  CG         5.4890   -5.5690  -32.6080 C.ar  327  TYR327     -0.0200
    144  CD1        4.1780   -5.4250  -33.0190 C.ar  327  TYR327     -0.0009
    145  CD2        6.3430   -6.3120  -33.4210 C.ar  327  TYR327     -0.0009
    146  CE1        3.7050   -6.0360  -34.2050 C.ar  327  TYR327      0.0417
    147  CE2        5.8780   -6.9110  -34.6020 C.ar  327  TYR327      0.0417
    148  CZ         4.5550   -6.7640  -34.9820 C.ar  327  TYR327      0.1957
    149  OH         4.0680   -7.3320  -36.1450 O.3   327  TYR327     -0.2866
    150  N          8.7400   -5.8790  -30.1310 N.am  328  PHE328     -0.1976
    151  CA        10.0640   -6.4030  -30.4840 C.3   328  PHE328      0.1639
    152  C         10.5930   -7.4730  -29.5550 C.2   328  PHE328      0.2290
    153  O         11.5550   -8.1370  -29.8870 O.2   328  PHE328     -0.2864
    154  CB        11.0870   -5.2700  -30.5430 C.3   328  PHE328      0.0560
    155  CG        10.8220   -4.3010  -31.6360 C.ar  328  PHE328     -0.0200
    156  CD1        9.9890   -3.2110  -31.4210 C.ar  328  PHE328     -0.0042
    157  CD2       11.3840   -4.4900  -32.8930 C.ar  328  PHE328     -0.0042
    158  CE1        9.7160   -2.3340  -32.4190 C.ar  328  PHE328     -0.0003
    159  CE2       11.1110   -3.5960  -33.9270 C.ar  328  PHE328     -0.0003
    160  CZ        10.2830   -2.5160  -33.6860 C.ar  328  PHE328     -0.0000
    161  N         10.3520  -11.1870  -30.6480 N.3   331  TYR331     -0.1241
    162  CA        11.2070  -11.5310  -31.7890 C.3   331  TYR331      0.1605
    163  C         12.6720  -11.6750  -31.3690 C.2   331  TYR331      0.2264
    164  O         13.5800  -11.3910  -32.1510 O.2   331  TYR331     -0.2867
    165  CB        11.1250  -10.4180  -32.8580 C.3   331  TYR331      0.0534
    166  CG         9.8930  -10.4600  -33.7150 C.ar  331  TYR331     -0.0201
    167  CD1        8.7720   -9.7080  -33.3900 C.ar  331  TYR331     -0.0009
    168  CD2        9.8510  -11.2510  -34.8640 C.ar  331  TYR331     -0.0009
    169  CE1        7.6250   -9.7510  -34.1780 C.ar  331  TYR331      0.0417
    170  CE2        8.7180  -11.2940  -35.6620 C.ar  331  TYR331      0.0417
    171  CZ         7.6010  -10.5400  -35.3170 C.ar  331  TYR331      0.1957
    172  OH         6.4640  -10.5920  -36.0990 O.3   331  TYR331     -0.2866
    173  N          3.9000   -0.5750  -31.0780 N.3   437  HIS437     -0.1226
    174  CA         4.4880    0.0780  -32.2150 C.3   437  HIS437      0.1752
    175  C          3.7380   -0.2850  -33.5140 C.2   437  HIS437      0.2596
    176  O          3.5870   -1.4690  -33.8760 O.2   437  HIS437     -0.2718
    177  CB         5.9530   -0.3560  -32.2040 C.3   437  HIS437      0.0759
    178  CG         6.7870    0.1680  -33.3240 C.ar  437  HIS437      0.0818
    179  ND1        7.3760    1.4170  -33.3000 N.ar  437  HIS437     -0.2268
    180  CD2        7.2110   -0.4300  -34.4600 C.ar  437  HIS437      0.1154
    181  CE1        8.0990    1.5740  -34.3950 C.ar  437  HIS437      0.1986
    182  NE2        8.0070    0.4690  -35.1200 N.ar  437  HIS437     -0.2212
    183  N          3.2290    0.7540  -34.1860 N.am  438  GLY438     -0.1957
    184  CA         2.4700    0.5940  -35.4070 C.3   438  GLY438      0.1869
    185  C          0.9670    0.7080  -35.2530 C.2   438  GLY438      0.2309
    186  O          0.2740    0.8170  -36.2460 O.2   438  GLY438     -0.2863
@<TRIPOS>BOND
     1    68    67    2
     2     1     2    1
     3    67    66    1
     4     2     3    1
     5     2     5    1
     6    69    66    1
     7    69    70    1
     8    50    49    2
     9     3     4    2
    10    61    60    1
    11    61    62    2
    12    72    70   ar
    13    72    74   ar
    14    60    59    1
    15    60    63    1
    16    49    59   am
    17    49    48    1
    18    66    65    1
    19    70    71   ar
    20     5     6    1
    21    48    47    1
    22    48    51    1
    23    74    75   ar
    24    63    64    1
    25    51    52    1
    26    24    23    2
    27    71    73   ar
    28     6     8   ar
    29     6     7   ar
    30     8    10   ar
    31    75    73   ar
    32    75    76    1
    33    38    37    2
    34    23    22    1
    35    35    36    1
    36    53    52   ar
    37    53    55   ar
    38    13    14    1
    39    52    54   ar
    40     7     9   ar
    41    91    92    1
    42    10    11   ar
    43    37    36    1
    44    37    39   am
    45    42    41    2
    46    99    97   ar
    47    99   100   ar
    48    22    21    1
    49    22    25    1
    50    55    57   ar
    51    97    96   ar
    52    40    41    1
    53    40    39    1
    54    16    15    2
    55    45    46    2
    56    45    44    1
    57    41    43   am
    58     9    11   ar
    59    54    56   ar
    60    11    12    1
    61    14    15    1
    62    14    17    1
    63   100   102   ar
    64   100    98   ar
    65   102   104   ar
    66    92    93    1
    67    92    95    1
    68    96    98   ar
    69    96    95    1
    70    25    26    1
    71    43    44    1
    72    57    56   ar
    73    57    58    1
    74    98   101   ar
    75    17    18    1
    76    93    94    2
    77    77    78    1
    78   104   103   ar
    79    31    33   ar
    80    31    28   ar
    81    80    79    2
    82   129   130    2
    83   129   128    1
    84    33    34   ar
    85   131   128    1
    86   131   132    1
    87   101   103   ar
    88    26    28   ar
    89    26    27   ar
    90    28    30   ar
    91   128   127    1
    92    78    79    1
    93    78    81    1
    94    79    86   am
    95    18    20   ar
    96    18    19   ar
    97    89    88    2
    98    88    87    1
    99    81    82    1
   100   132   133   ar
   101   132   134   ar
   102    34    32   ar
   103    27    29   ar
   104   133   135   ar
   105    84    83   ar
   106   134   136   ar
   107    30    32   ar
   108    30    29   ar
   109    86    87    1
   110   127   118   am
   111    87    90    1
   112   135   137   ar
   113    82    83    1
   114   136   137   ar
   115    83    85   ar
   116   119   118    2
   117   118   117    1
   118   186   185    2
   119   149   148    1
   120   172   171    1
   121   170   171   ar
   122   170   168   ar
   123   117   120    1
   124   117   116    1
   125   184   185    1
   126   184   183    1
   127   171   169   ar
   128   182   180   ar
   129   182   181   ar
   130   148   147   ar
   131   148   146   ar
   132   168   166   ar
   133   120   121    1
   134   116   107   am
   135   147   145   ar
   136   180   178   ar
   137   181   179   ar
   138   121   122    1
   139   146   144   ar
   140   183   175   am
   141   169   167   ar
   142   113   111   ar
   143   113   115   ar
   144   159   160   ar
   145   159   157   ar
   146   107   108    2
   147   107   106    1
   148   176   175    2
   149   122   123    1
   150   166   167   ar
   151   166   165    1
   152   160   158   ar
   153   111   110   ar
   154   175   174    1
   155   145   143   ar
   156   178   179   ar
   157   178   177    1
   158   115   114   ar
   159   106   105    1
   160   106   109    1
   161   144   143   ar
   162   157   155   ar
   163   165   162    1
   164   123   124    2
   165   143   142    1
   166   110   109    1
   167   110   112   ar
   168   158   156   ar
   169   174   177    1
   170   174   173    1
   171   164   163    2
   172   114   112   ar
   173   162   163    1
   174   162   161    1
   175   125   124    1
   176   124   126    1
   177   155   156   ar
   178   155   154    1
   179   142   139    1
   180   141   140    2
   181   154   151    1
   182   151   150    1
   183   151   152    1
   184   140   139    1
   185   140   150   am
   186   139   138    1
   187   153   152    2
