@<TRIPOS>MOLECULE
tmp/2ha7A02.pdb
 88 85 0 0 0
SMALL
GASTEIGER

@<TRIPOS>ATOM
      1  N         15.3860   15.7500    7.8010 N.3   326  LYS326     -0.1231
      2  CA        14.8750   16.0540    6.4620 C.3   326  LYS326      0.1693
      3  C         15.9280   16.7250    5.5650 C.2   326  LYS326      0.2592
      4  O         15.9620   16.4800    4.3580 O.2   326  LYS326     -0.2718
      5  CB        13.6000   16.9030    6.5710 C.3   326  LYS326      0.0285
      6  CG        12.8540   17.1900    5.2710 C.3   326  LYS326      0.0035
      7  CD        11.5020   17.8470    5.5900 C.3   326  LYS326      0.0206
      8  CE        11.2110   19.0850    4.7110 C.3   326  LYS326      0.1093
      9  NZ        12.0130   20.3260    5.1120 N.3   326  LYS326     -0.1314
     10  N         16.7980   17.5530    6.1470 N.am  327  ASP327     -0.1974
     11  CA        17.7720   18.2920    5.3350 C.3   327  ASP327      0.1709
     12  C         19.1930   18.1330    5.8730 C.2   327  ASP327      0.2293
     13  O         19.7790   19.0680    6.4400 O.2   327  ASP327     -0.2864
     14  CB        17.3580   19.7640    5.2050 C.3   327  ASP327      0.1436
     15  CG        15.9330   19.9240    4.6600 C.2   327  ASP327      0.3671
     16  OD1       14.9690   19.8370    5.4540 O.co2 327  ASP327     -0.2456
     17  OD2       15.7740   20.1240    3.4380 O.co2 327  ASP327     -0.2456
     18  N         19.1710   34.0060    0.6370 N.3   345  GLU345     -0.1245
     19  CA        18.3840   32.8620    0.2290 C.3   345  GLU345      0.1567
     20  C         19.2020   31.8330   -0.5720 C.2   345  GLU345      0.2260
     21  O         18.7260   30.7290   -0.8460 O.2   345  GLU345     -0.2867
     22  CB        17.1160   33.3450   -0.5100 C.3   345  GLU345      0.0388
     23  CG        15.9560   33.7570    0.4300 C.3   345  GLU345      0.1160
     24  CD        15.2520   32.5390    1.0550 C.2   345  GLU345      0.3649
     25  OE1       14.4930   31.8490    0.3200 O.co2 345  GLU345     -0.2457
     26  OE2       15.4610   32.2530    2.2710 O.co2 345  GLU345     -0.2457
     27  N         16.3650   28.0970   -7.3390 N.3   386  THR386     -0.1203
     28  CA        15.7950   27.4700   -6.1370 C.3   386  THR386      0.1994
     29  C         15.9830   25.9610   -6.1970 C.2   386  THR386      0.2617
     30  O         16.4350   25.3610   -5.2170 O.2   386  THR386     -0.2717
     31  CB        14.2800   27.8050   -5.9100 C.3   386  THR386      0.1784
     32  OG1       14.1080   29.2130   -5.7440 O.3   386  THR386     -0.2211
     33  CG2       13.7540   27.1230   -4.6640 C.3   386  THR386      0.0376
     34  N         15.6410   25.3390   -7.3270 N.am  387  HIS387     -0.1975
     35  CA        15.8870   23.9110   -7.4370 C.3   387  HIS387      0.1656
     36  C         17.3690   23.5340   -7.3000 C.2   387  HIS387      0.2291
     37  O         17.6840   22.5420   -6.6450 O.2   387  HIS387     -0.2864
     38  CB        15.2890   23.2490   -8.6840 C.3   387  HIS387      0.0771
     39  CG        15.4810   21.7580   -8.6770 C.ar  387  HIS387      0.0820
     40  ND1       16.5450   21.1370   -9.3080 N.ar  387  HIS387     -0.2267
     41  CD2       14.8180   20.7790   -8.0070 C.ar  387  HIS387      0.1154
     42  CE1       16.4910   19.8350   -9.0750 C.ar  387  HIS387      0.1986
     43  NE2       15.4540   19.5910   -8.2880 N.ar  387  HIS387     -0.2212
     44  N         19.8050   25.1590   -5.6890 N.3   389  ARG389     -0.1231
     45  CA        20.1650   25.2800   -4.2920 C.3   389  ARG389      0.1694
     46  C         19.7500   24.0350   -3.5050 C.2   389  ARG389      0.2592
     47  O         20.5380   23.4870   -2.7330 O.2   389  ARG389     -0.2718
     48  CB        19.5300   26.5400   -3.6980 C.3   389  ARG389      0.0321
     49  CG        19.6930   26.6830   -2.1860 C.3   389  ARG389      0.0489
     50  CD        18.3430   26.5990   -1.5230 C.3   389  ARG389      0.2205
     51  NE        17.7310   27.9110   -1.4310 N.pl3 389  ARG389     -0.0865
     52  CZ        16.4240   28.1400   -1.3340 C.cat 389  ARG389      0.5346
     53  NH1       15.5430   27.1380   -1.3220 N.pl3 389  ARG389      0.1354
     54  NH2       16.0010   29.3980   -1.2550 N.pl3 389  ARG389      0.1354
     55  N         18.5170   23.5850   -3.7190 N.am  390  ASP390     -0.1974
     56  CA        17.9840   22.4490   -2.9850 C.3   390  ASP390      0.1709
     57  C         18.6500   21.1420   -3.4010 C.2   390  ASP390      0.2293
     58  O         18.9000   20.2900   -2.5570 O.2   390  ASP390     -0.2864
     59  CB        16.4560   22.3800   -3.1160 C.3   390  ASP390      0.1436
     60  CG        15.7520   23.5630   -2.4430 C.2   390  ASP390      0.3671
     61  OD1       16.3580   24.2010   -1.5510 O.co2 390  ASP390     -0.2456
     62  OD2       14.5820   23.8540   -2.7940 O.co2 390  ASP390     -0.2456
     63  N         15.1410   29.8340    6.8060 N.3   435  LEU435     -0.1231
     64  CA        14.1440   28.8650    6.3840 C.3   435  LEU435      0.1693
     65  C         14.5880   27.8910    5.2910 C.2   435  LEU435      0.2592
     66  O         14.2050   26.7210    5.3390 O.2   435  LEU435     -0.2718
     67  CB        12.8590   29.5700    5.9430 C.3   435  LEU435      0.0284
     68  CG        11.9040   30.0240    7.0470 C.3   435  LEU435      0.0019
     69  CD1       10.9040   31.0460    6.4880 C.3   435  LEU435      0.0001
     70  CD2       11.1830   28.8260    7.6840 C.3   435  LEU435      0.0001
     71  N         15.3760   28.3530    4.3150 N.am  436  TRP436     -0.1976
     72  CA        15.7760   27.4780    3.2000 C.3   436  TRP436      0.1640
     73  C         16.5220   26.2200    3.6550 C.2   436  TRP436      0.2290
     74  O         16.4870   25.1980    2.9800 O.2   436  TRP436     -0.2864
     75  CB        16.5560   28.2240    2.1070 C.3   436  TRP436      0.0576
     76  CG        17.9530   28.6780    2.4640 C.ar  436  TRP436      0.0006
     77  CD1       18.3330   29.9380    2.8590 C.ar  436  TRP436      0.0946
     78  CD2       19.1600   27.8990    2.4110 C.ar  436  TRP436      0.0152
     79  NE1       19.6940   29.9830    3.0730 N.ar  436  TRP436     -0.2442
     80  CE2       20.2250   28.7480    2.8080 C.ar  436  TRP436      0.0810
     81  CE3       19.4460   26.5630    2.0780 C.ar  436  TRP436      0.0012
     82  CZ2       21.5420   28.3030    2.8890 C.ar  436  TRP436      0.0191
     83  CZ3       20.7600   26.1280    2.1480 C.ar  436  TRP436      0.0001
     84  CH2       21.7900   26.9950    2.5570 C.ar  436  TRP436      0.0015
     85  N         15.7790   24.2090    5.8530 N.3   438  GLY438     -0.1225
     86  CA        14.8470   23.1680    6.2810 C.3   438  GLY438      0.1811
     87  C         15.0720   22.7070    7.7030 C.2   438  GLY438      0.2280
     88  O         15.1120   23.5230    8.6160 O.2   438  GLY438     -0.2866
@<TRIPOS>BOND
     1    40    42   ar
     2    40    39   ar
     3    42    43   ar
     4    38    39    1
     5    38    35    1
     6    39    41   ar
     7    43    41   ar
     8    35    34    1
     9    35    36    1
    10    27    28    1
    11    34    29   am
    12    36    37    2
    13    29    28    1
    14    29    30    2
    15    28    31    1
    16    31    32    1
    17    31    33    1
    18    44    45    1
    19    45    48    1
    20    45    46    1
    21    55    46   am
    22    55    56    1
    23    48    49    1
    24    46    47    2
    25    57    56    1
    26    57    58    2
    27    59    56    1
    28    59    60    1
    29    62    60   ar
    30    60    61   ar
    31    49    50    1
    32    50    51    1
    33    51    52    2
    34    52    53    1
    35    52    54    1
    36    21    20    2
    37    20    19    1
    38    22    19    1
    39    22    23    1
    40    19    18    1
    41    25    24   ar
    42    23    24    1
    43    24    26   ar
    44    81    83   ar
    45    81    78   ar
    46    75    76    1
    47    75    72    1
    48    83    84   ar
    49    78    76   ar
    50    78    80   ar
    51    76    77   ar
    52    84    82   ar
    53    80    82   ar
    54    80    79   ar
    55    77    79   ar
    56    74    73    2
    57    72    73    1
    58    72    71    1
    59    17    15   ar
    60    71    65   am
    61     4     3    2
    62    15    14    1
    63    15    16   ar
    64     8     9    1
    65     8     7    1
    66    14    11    1
    67     6     7    1
    68     6     5    1
    69    65    66    2
    70    65    64    1
    71    11    12    1
    72    11    10    1
    73     3    10   am
    74     3     2    1
    75    85    86    1
    76    12    13    2
    77    67    64    1
    78    67    68    1
    79    86    87    1
    80    64    63    1
    81     2     5    1
    82     2     1    1
    83    69    68    1
    84    68    70    1
    85    87    88    2
