@<TRIPOS>MOLECULE
tmp/2ha7A00.pdb
 127 126 0 0 0
SMALL
GASTEIGER

@<TRIPOS>ATOM
      1  N         34.5940   27.3420   16.2800 N.3    74  ASP74      -0.1239
      2  CA        33.9770   27.9250   15.0820 C.3    74  ASP74       0.1674
      3  C         33.9240   29.4540   15.0840 C.2    74  ASP74       0.2266
      4  O         33.5270   30.0760   16.0780 O.2    74  ASP74      -0.2867
      5  CB        32.5740   27.3690   14.8920 C.3    74  ASP74       0.1410
      6  CG        32.1150   27.4400   13.4560 C.2    74  ASP74       0.3668
      7  OD1       32.3070   26.4290   12.7360 O.co2  74  ASP74      -0.2456
      8  OD2       31.5870   28.5040   13.0430 O.co2  74  ASP74      -0.2456
      9  N         27.0140   24.9710   19.6320 N.3    86  TRP86      -0.1241
     10  CA        27.8600   23.7930   19.4440 C.3    86  TRP86       0.1605
     11  C         29.2900   24.0240   19.9290 C.2    86  TRP86       0.2264
     12  O         30.0830   23.0850   20.0430 O.2    86  TRP86      -0.2867
     13  CB        27.8630   23.3410   17.9800 C.3    86  TRP86       0.0550
     14  CG        26.4900   23.1310   17.4200 C.ar   86  TRP86       0.0003
     15  CD1       25.8530   23.9140   16.5080 C.ar   86  TRP86       0.0946
     16  CD2       25.5810   22.0730   17.7480 C.ar   86  TRP86       0.0152
     17  NE1       24.6120   23.4130   16.2380 N.ar   86  TRP86      -0.2442
     18  CE2       24.4150   22.2810   16.9850 C.ar   86  TRP86       0.0810
     19  CE3       25.6420   20.9690   18.6090 C.ar   86  TRP86       0.0012
     20  CZ2       23.3100   21.4310   17.0600 C.ar   86  TRP86       0.0191
     21  CZ3       24.5540   20.1230   18.6820 C.ar   86  TRP86       0.0001
     22  CH2       23.3970   20.3580   17.9130 C.ar   86  TRP86       0.0015
     23  N         28.5310   14.1830   18.6260 N.3   120  GLY120     -0.1210
     24  CA        29.1080   14.3810   17.2990 C.3   120  GLY120      0.1956
     25  C         29.8780   15.6900   17.2330 C.2   120  GLY120      0.2612
     26  O         30.0870   16.3400   18.2670 O.2   120  GLY120     -0.2717
     27  N         30.2850   16.0720   16.0210 N.am  121  GLY121     -0.1942
     28  CA        31.2410   17.1660   15.8050 C.3   121  GLY121      0.2014
     29  C         32.4080   16.7930   14.8850 C.2   121  GLY121      0.2639
     30  O         33.5180   17.3210   15.0340 O.2   121  GLY121     -0.2714
     31  N         32.1630   15.8720   13.9540 N.am  122  GLY122     -0.1954
     32  CA        33.1220   15.5090   12.9110 C.3   122  GLY122      0.1869
     33  C         34.4180   14.8770   13.3850 C.2   122  GLY122      0.2309
     34  O         35.3860   14.7890   12.6140 O.2   122  GLY122     -0.2863
     35  N         36.4140   16.2790   15.3560 N.3   124  TYR124     -0.1227
     36  CA        37.3420   17.3790   15.6570 C.3   124  TYR124      0.1736
     37  C         36.7890   18.3260   16.7420 C.2   124  TYR124      0.2596
     38  O         37.4680   19.2790   17.1570 O.2   124  TYR124     -0.2718
     39  CB        37.6700   18.1880   14.3900 C.3   124  TYR124      0.0548
     40  CG        36.4980   18.9980   13.8900 C.ar  124  TYR124     -0.0200
     41  CD1       36.2620   20.2970   14.3640 C.ar  124  TYR124     -0.0009
     42  CD2       35.6130   18.4730   12.9470 C.ar  124  TYR124     -0.0009
     43  CE1       35.1790   21.0510   13.9100 C.ar  124  TYR124      0.0417
     44  CE2       34.5230   19.2170   12.4920 C.ar  124  TYR124      0.0417
     45  CZ        34.3180   20.5020   12.9840 C.ar  124  TYR124      0.1957
     46  OH        33.2450   21.2290   12.5410 O.3   124  TYR124     -0.2866
     47  N         35.5490   18.0930   17.1670 N.am  125  SER125     -0.1952
     48  CA        34.9110   18.9880   18.1140 C.3   125  SER125      0.1924
     49  C         33.8050   18.2940   18.8940 C.2   125  SER125      0.2314
     50  O         33.5040   17.1080   18.6580 O.2   125  SER125     -0.2863
     51  CB        34.3670   20.2400   17.4030 C.3   125  SER125      0.2116
     52  OG        33.3190   19.9080   16.5070 O.3   125  SER125     -0.2180
     53  N         22.6540   18.5820   25.3020 N.3   133  TYR133     -0.1241
     54  CA        22.8640   17.2090   25.7870 C.3   133  TYR133      0.1605
     55  C         22.5240   17.0490   27.2920 C.2   133  TYR133      0.2264
     56  O         23.0260   16.1520   27.9630 O.2   133  TYR133     -0.2867
     57  CB        24.2950   16.7190   25.4910 C.3   133  TYR133      0.0534
     58  CG        24.8350   16.9580   24.0880 C.ar  133  TYR133     -0.0201
     59  CD1       24.0600   16.7100   22.9550 C.ar  133  TYR133     -0.0009
     60  CD2       26.1500   17.4040   23.8970 C.ar  133  TYR133     -0.0009
     61  CE1       24.5700   16.9250   21.6600 C.ar  133  TYR133      0.0417
     62  CE2       26.6700   17.6090   22.6140 C.ar  133  TYR133      0.0417
     63  CZ        25.8700   17.3720   21.5020 C.ar  133  TYR133      0.1957
     64  OH        26.3720   17.5670   20.2390 O.3   133  TYR133     -0.2866
     65  N         24.7210   11.1820   17.8250 N.3   202  GLU202     -0.1231
     66  CA        24.3820   11.8410   16.5690 C.3   202  GLU202      0.1699
     67  C         25.6400   12.2020   15.7730 C.2   202  GLU202      0.2592
     68  O         26.6940   12.4790   16.3720 O.2   202  GLU202     -0.2718
     69  CB        23.5270   13.0750   16.8460 C.3   202  GLU202      0.0402
     70  CG        22.9740   13.7770   15.6120 C.3   202  GLU202      0.1161
     71  CD        23.8680   14.9050   15.1410 C.2   202  GLU202      0.3649
     72  OE1       24.8340   15.2360   15.8720 O.co2 202  GLU202     -0.2457
     73  OE2       23.6110   15.4500   14.0410 O.co2 202  GLU202     -0.2457
     74  N         25.5270   12.1960   14.4340 N.am  203  ALA203     -0.1980
     75  CA        26.6480   12.5410   13.5380 C.3   203  ALA203      0.1597
     76  C         27.8960   11.6330   13.7920 C.2   203  ALA203      0.2287
     77  O         27.7640   10.4030   13.7470 O.2   203  ALA203     -0.2864
     78  CB        26.9750   14.0230   13.6550 C.3   203  ALA203      0.0319
     79  N         23.3020   22.5750    6.1520 N.3   331  TYR331     -0.1227
     80  CA        24.2640   23.1200    7.1210 C.3   331  TYR331      0.1736
     81  C         25.6690   23.2760    6.5160 C.2   331  TYR331      0.2595
     82  O         26.3130   24.3260    6.6230 O.2   331  TYR331     -0.2718
     83  CB        24.3230   22.1520    8.3140 C.3   331  TYR331      0.0548
     84  CG        25.0080   22.6770    9.5310 C.ar  331  TYR331     -0.0200
     85  CD1       24.2710   23.1990   10.5850 C.ar  331  TYR331     -0.0009
     86  CD2       26.3910   22.6310    9.6450 C.ar  331  TYR331     -0.0009
     87  CE1       24.9010   23.6990   11.7370 C.ar  331  TYR331      0.0417
     88  CE2       27.0410   23.1340   10.7810 C.ar  331  TYR331      0.0417
     89  CZ        26.2910   23.6710   11.8250 C.ar  331  TYR331      0.1957
     90  OH        26.9320   24.1670   12.9490 O.3   331  TYR331     -0.2866
     91  N         26.1190   22.2080    5.8670 N.am  332  PHE332     -0.1976
     92  CA        27.4730   22.0810    5.3660 C.3   332  PHE332      0.1639
     93  C         27.8040   22.9970    4.1860 C.2   332  PHE332      0.2290
     94  O         28.9830   23.3210    3.9420 O.2   332  PHE332     -0.2864
     95  CB        27.7390   20.6100    5.0480 C.3   332  PHE332      0.0560
     96  CG        27.7330   19.7420    6.2720 C.ar  332  PHE332     -0.0200
     97  CD1       26.5480   19.1650    6.7300 C.ar  332  PHE332     -0.0042
     98  CD2       28.9000   19.5520    7.0090 C.ar  332  PHE332     -0.0042
     99  CE1       26.5360   18.3870    7.8920 C.ar  332  PHE332     -0.0003
    100  CE2       28.8960   18.7760    8.1630 C.ar  332  PHE332     -0.0003
    101  CZ        27.7180   18.1980    8.6090 C.ar  332  PHE332     -0.0000
    102  N         29.7460   26.4410    4.6720 N.3   335  TYR335     -0.1241
    103  CA        31.1180   26.3180    5.1260 C.3   335  TYR335      0.1605
    104  C         32.1210   26.0500    3.9930 C.2   335  TYR335      0.2264
    105  O         33.2020   25.5080    4.2330 O.2   335  TYR335     -0.2867
    106  CB        31.2160   25.2220    6.2050 C.3   335  TYR335      0.0534
    107  CG        30.7920   25.7030    7.5730 C.ar  335  TYR335     -0.0201
    108  CD1       29.4770   25.5480    8.0130 C.ar  335  TYR335     -0.0009
    109  CD2       31.7070   26.3370    8.4200 C.ar  335  TYR335     -0.0009
    110  CE1       29.0820   25.9950    9.2620 C.ar  335  TYR335      0.0417
    111  CE2       31.3280   26.7840    9.6760 C.ar  335  TYR335      0.0417
    112  CZ        30.0070   26.6200   10.0920 C.ar  335  TYR335      0.1957
    113  OH        29.6230   27.0780   11.3440 O.3   335  TYR335     -0.2866
    114  N         20.9990   19.1540    9.8840 N.3   441  HIS441     -0.1226
    115  CA        21.8100   18.2220   10.6340 C.3   441  HIS441      0.1752
    116  C         21.9180   18.7100   12.0690 C.2   441  HIS441      0.2596
    117  O         22.3150   19.8420   12.3060 O.2   441  HIS441     -0.2718
    118  CB        23.1940   18.2110    9.9770 C.3   441  HIS441      0.0759
    119  CG        24.1010   17.1110   10.4330 C.ar  441  HIS441      0.0818
    120  ND1       23.7900   15.7740   10.2850 N.ar  441  HIS441     -0.2268
    121  CD2       25.3460   17.1490   10.9610 C.ar  441  HIS441      0.1154
    122  CE1       24.7930   15.0370   10.7320 C.ar  441  HIS441      0.1986
    123  NE2       25.7510   15.8470   11.1460 N.ar  441  HIS441     -0.2212
    124  N         21.5360   17.8650   13.0230 N.am  442  GLY442     -0.1957
    125  CA        21.6960   18.1640   14.4430 C.3   442  GLY442      0.1869
    126  C         20.4730   18.6830   15.1720 C.2   442  GLY442      0.2309
    127  O         20.4750   18.7660   16.4100 O.2   442  GLY442     -0.2863
@<TRIPOS>BOND
     1    94    93    2
     2   104   105    2
     3   104   103    1
     4    93    92    1
     5   102   103    1
     6    95    92    1
     7    95    96    1
     8   103   106    1
     9    92    91    1
    10    91    81   am
    11    79    80    1
    12   106   107    1
    13    96    97   ar
    14    96    98   ar
    15    81    82    2
    16    81    80    1
    17    97    99   ar
    18    98   100   ar
    19    80    83    1
    20   107   108   ar
    21   107   109   ar
    22    99   101   ar
    23   108   110   ar
    24   100   101   ar
    25    83    84    1
    26   109   111   ar
    27   110   112   ar
    28    84    86   ar
    29    84    85   ar
    30    86    88   ar
    31   111   112   ar
    32   114   115    1
    33   118   119    1
    34   118   115    1
    35   112   113    1
    36   120   119   ar
    37   120   122   ar
    38   119   121   ar
    39    85    87   ar
    40   115   116    1
    41   122   123   ar
    42    88    89   ar
    43   121   123   ar
    44    87    89   ar
    45    89    90    1
    46   116   117    2
    47   116   124   am
    48    44    42   ar
    49    44    45   ar
    50    46    45    1
    51    34    33    2
    52     7     6   ar
    53    32    33    1
    54    32    31    1
    55    42    40   ar
    56    45    43   ar
    57   124   125    1
    58     8     6   ar
    59     6     5    1
    60    75    78    1
    61    75    76    1
    62    75    74    1
    63    77    76    2
    64    40    41   ar
    65    40    39    1
    66    43    41   ar
    67    31    29   am
    68    73    71   ar
    69    39    36    1
    70    74    67   am
    71   125   126    1
    72    29    30    2
    73    29    28    1
    74     5     2    1
    75     2     3    1
    76     2     1    1
    77     3     4    2
    78    71    70    1
    79    71    72   ar
    80   126   127    2
    81    35    36    1
    82    70    69    1
    83    36    37    1
    84    67    68    2
    85    67    66    1
    86    28    27    1
    87    27    25   am
    88    17    15   ar
    89    17    18   ar
    90    52    51    1
    91    15    14   ar
    92    66    69    1
    93    66    65    1
    94    37    38    2
    95    37    47   am
    96    18    20   ar
    97    18    16   ar
    98    20    22   ar
    99    47    48    1
   100    25    24    1
   101    25    26    2
   102    24    23    1
   103    51    48    1
   104    14    16   ar
   105    14    13    1
   106    16    19   ar
   107    22    21   ar
   108    13    10    1
   109    48    49    1
   110    19    21   ar
   111    50    49    2
   112    10     9    1
   113    10    11    1
   114    11    12    2
   115    64    63    1
   116    63    61   ar
   117    63    62   ar
   118    61    59   ar
   119    62    60   ar
   120    59    58   ar
   121    60    58   ar
   122    58    57    1
   123    53    54    1
   124    57    54    1
   125    54    55    1
   126    55    56    2
