@<TRIPOS>MOLECULE
tmp/2ha8A00.pdb
 142 135 0 0 0
SMALL
GASTEIGER

@<TRIPOS>ATOM
      1  N         34.0910   39.9290   29.6780 N.3    87  VAL87      -0.1231
      2  CA        33.6110   39.3220   28.4560 C.3    87  VAL87       0.1692
      3  C         34.5340   39.8240   27.3540 C.2    87  VAL87       0.2592
      4  O         34.4420   40.9790   26.9140 O.2    87  VAL87      -0.2718
      5  CB        32.1520   39.7120   28.1750 C.3    87  VAL87       0.0266
      6  CG1       31.6530   39.0550   26.8690 C.3    87  VAL87       0.0020
      7  CG2       31.2630   39.3310   29.3800 C.3    87  VAL87       0.0020
      8  N         35.4590   38.9700   26.9350 N.am   88  GLU88      -0.1966
      9  CA        36.5060   39.4470   26.0380 C.3    88  GLU88       0.1733
     10  C         37.3410   38.3220   25.4660 C.2    88  GLU88       0.2616
     11  O         37.5490   37.2870   26.1120 O.2    88  GLU88      -0.2715
     12  CB        37.4130   40.4380   26.7800 C.3    88  GLU88       0.0429
     13  CG        38.4490   41.1770   25.8920 C.3    88  GLU88       0.1163
     14  CD        37.8150   41.9240   24.7170 C.2    88  GLU88       0.3649
     15  OE1       37.7240   43.1650   24.8210 O.co2  88  GLU88      -0.2457
     16  OE2       37.3820   41.2770   23.7170 O.co2  88  GLU88      -0.2457
     17  N         37.8360   38.5610   24.2550 N.am   89  GLN89      -0.1977
     18  CA        38.7240   37.6240   23.5620 C.3    89  GLN89       0.1601
     19  C         40.1500   37.9440   24.0170 C.2    89  GLN89       0.2287
     20  O         40.6450   39.0370   23.7440 O.2    89  GLN89      -0.2864
     21  CB        38.5930   37.7910   22.0400 C.3    89  GLN89       0.0394
     22  CG        37.1700   37.5710   21.5140 C.3    89  GLN89       0.0908
     23  CD        37.0310   37.9570   20.0520 C.2    89  GLN89       0.2608
     24  OE1       36.9990   39.1360   19.7050 O.2    89  GLN89      -0.2717
     25  NE2       36.9510   36.9620   19.2000 N.am   89  GLN89      -0.0878
     26  N         31.3830   44.1070   30.0180 N.3   109  LEU109     -0.1231
     27  CA        31.5290   44.1900   28.5560 C.3   109  LEU109      0.1693
     28  C         32.5370   45.2680   28.1590 C.2   109  LEU109      0.2593
     29  O         32.7180   46.2610   28.8710 O.2   109  LEU109     -0.2718
     30  CB        30.1670   44.4740   27.9130 C.3   109  LEU109      0.0284
     31  CG        29.1490   43.3360   28.0720 C.3   109  LEU109      0.0019
     32  CD1       27.7360   43.9090   27.8890 C.3   109  LEU109      0.0001
     33  CD2       29.4360   42.2400   27.0700 C.3   109  LEU109      0.0001
     34  N         33.2020   45.0730   27.0210 N.am  110  GLY110     -0.1942
     35  CA        34.2170   46.0290   26.5920 C.3   110  GLY110      0.2014
     36  C         33.6690   47.1620   25.7410 C.2   110  GLY110      0.2639
     37  O         32.5600   47.0970   25.2020 O.2   110  GLY110     -0.2714
     38  N         34.4820   48.2040   25.5990 N.am  111  ASN111     -0.1958
     39  CA        34.1880   49.2860   24.6650 C.3   111  ASN111      0.1819
     40  C         34.1900   48.7960   23.2070 C.2   111  ASN111      0.2621
     41  O         34.9280   47.8810   22.8580 O.2   111  ASN111     -0.2715
     42  CB        35.2560   50.3490   24.8520 C.3   111  ASN111      0.1195
     43  CG        35.0880   51.5040   23.9150 C.2   111  ASN111      0.2630
     44  OD1       35.8070   51.6070   22.9220 O.2   111  ASN111     -0.2716
     45  ND2       34.1300   52.3720   24.2060 N.am  111  ASN111     -0.0877
     46  N         33.3630   49.3970   22.3520 N.am  112  GLU112     -0.1963
     47  CA        33.2440   48.9450   20.9630 C.3   112  GLU112      0.1733
     48  C         34.5810   48.9900   20.2250 C.2   112  GLU112      0.2616
     49  O         34.8580   48.1490   19.3830 O.2   112  GLU112     -0.2715
     50  CB        32.2160   49.7940   20.1880 C.3   112  GLU112      0.0429
     51  CG        30.7640   49.6480   20.6590 C.3   112  GLU112      0.1163
     52  CD        30.3520   50.6420   21.7380 C.2   112  GLU112      0.3649
     53  OE1       31.2060   51.1250   22.5230 O.co2 112  GLU112     -0.2457
     54  OE2       29.1440   50.9450   21.7990 O.co2 112  GLU112     -0.2457
     55  N         35.3810   49.9990   20.5260 N.am  113  ARG113     -0.1963
     56  CA        36.6510   50.2160   19.8340 C.3   113  ARG113      0.1729
     57  C         37.8050   49.6070   20.6180 C.2   113  ARG113      0.2616
     58  O         38.6570   48.9160   20.0570 O.2   113  ARG113     -0.2715
     59  CB        36.8880   51.7230   19.6440 C.3   113  ARG113      0.0348
     60  CG        36.2340   52.3130   18.4060 C.3   113  ARG113      0.0492
     61  CD        36.6270   53.7920   18.1940 C.3   113  ARG113      0.2205
     62  NE        35.6380   54.7200   18.7590 N.pl3 113  ARG113     -0.0865
     63  CZ        35.7820   56.0450   18.8130 C.cat 113  ARG113      0.5346
     64  NH1       36.8830   56.6290   18.3500 N.pl3 113  ARG113      0.1354
     65  NH2       34.8210   56.7970   19.3430 N.pl3 113  ARG113      0.1354
     66  N         37.8060   49.8520   21.9260 N.am  114  GLU114     -0.1963
     67  CA        38.9700   49.6020   22.7680 C.3   114  GLU114      0.1733
     68  C         38.9010   48.2870   23.5550 C.2   114  GLU114      0.2616
     69  O         39.8970   47.8780   24.1450 O.2   114  GLU114     -0.2715
     70  CB        39.1550   50.7520   23.7650 C.3   114  GLU114      0.0429
     71  CG        38.8820   52.1720   23.2230 C.3   114  GLU114      0.1163
     72  CD        39.9940   52.7250   22.3440 C.2   114  GLU114      0.3649
     73  OE1       40.7260   51.9320   21.7050 O.co2 114  GLU114     -0.2457
     74  OE2       40.1240   53.9740   22.2800 O.co2 114  GLU114     -0.2457
     75  N         37.7390   47.6340   23.5870 N.am  115  GLY115     -0.1955
     76  CA        37.5980   46.4320   24.4440 C.3   115  GLY115      0.1869
     77  C         37.6820   46.7890   25.9270 C.2   115  GLY115      0.2309
     78  O         37.3190   47.8910   26.3300 O.2   115  GLY115     -0.2863
     79  N         35.3130   34.0470   26.7240 N.3   129  GLU129     -0.1231
     80  CA        35.1900   34.3730   25.3100 C.3   129  GLU129      0.1699
     81  C         34.2310   33.4260   24.6000 C.2   129  GLU129      0.2592
     82  O         34.1200   32.2230   24.9310 O.2   129  GLU129     -0.2718
     83  CB        36.5630   34.4360   24.6170 C.3   129  GLU129      0.0402
     84  CG        37.2510   33.1150   24.4410 C.3   129  GLU129      0.1161
     85  CD        38.6000   33.2270   23.6960 C.2   129  GLU129      0.3649
     86  OE1       39.1650   34.3400   23.5560 O.co2 129  GLU129     -0.2457
     87  OE2       39.1020   32.1660   23.2530 O.co2 129  GLU129     -0.2457
     88  N         33.5240   33.9870   23.6340 N.am  130  ILE130     -0.1980
     89  CA        32.6370   33.2160   22.7620 C.3   130  ILE130      0.1595
     90  C         33.4850   32.7110   21.6030 C.2   130  ILE130      0.2287
     91  O         34.0930   33.5160   20.9200 O.2   130  ILE130     -0.2864
     92  CB        31.5420   34.1350   22.2110 C.3   130  ILE130      0.0276
     93  CG1       30.7270   34.7530   23.3710 C.3   130  ILE130      0.0022
     94  CG2       30.6270   33.3780   21.2710 C.3   130  ILE130      0.0022
     95  CD1       30.0450   36.0660   23.0280 C.3   130  ILE130      0.0001
     96  N         34.6400   31.6180   17.9410 N.3   132  GLN132     -0.1245
     97  CA        34.2140   32.0650   16.6090 C.3   132  GLN132      0.1566
     98  C         34.7710   31.1280   15.5340 C.2   132  GLN132      0.2260
     99  O         35.7770   30.4500   15.7570 O.2   132  GLN132     -0.2867
    100  CB        34.6720   33.5010   16.3480 C.3   132  GLN132      0.0367
    101  CG        34.1300   34.5220   17.3440 C.3   132  GLN132      0.0905
    102  CD        34.4460   35.9400   16.9680 C.2   132  GLN132      0.2608
    103  OE1       35.0950   36.2180   15.9360 O.2   132  GLN132     -0.2717
    104  NE2       33.9920   36.8560   17.7750 N.am  132  GLN132     -0.0878
    105  N         36.4830   39.5210   13.0050 N.3   137  ARG137     -0.1231
    106  CA        37.2840   39.3950   14.2310 C.3   137  ARG137      0.1694
    107  C         36.4900   39.2820   15.5240 C.2   137  ARG137      0.2593
    108  O         36.9770   38.6970   16.4880 O.2   137  ARG137     -0.2718
    109  CB        38.2960   40.5450   14.3480 C.3   137  ARG137      0.0321
    110  CG        37.7320   41.9550   14.3440 C.3   137  ARG137      0.0489
    111  CD        38.8460   42.9810   14.0440 C.3   137  ARG137      0.2205
    112  NE        40.0290   42.7350   14.8760 N.pl3 137  ARG137     -0.0865
    113  CZ        41.2830   43.0230   14.5290 C.cat 137  ARG137      0.5346
    114  NH1       41.5480   43.6000   13.3590 N.pl3 137  ARG137      0.1354
    115  NH2       42.2770   42.7390   15.3620 N.pl3 137  ARG137      0.1354
    116  N         35.2950   39.8560   15.5480 N.am  138  SER138     -0.1938
    117  CA        34.5340   39.9650   16.8110 C.3   138  SER138      0.2055
    118  C         33.0410   40.0650   16.5400 C.2   138  SER138      0.2642
    119  O         32.6330   40.4080   15.4390 O.2   138  SER138     -0.2714
    120  CB        34.9880   41.1990   17.5770 C.3   138  SER138      0.2130
    121  OG        34.6940   42.3880   16.8550 O.3   138  SER138     -0.2179
    122  N         32.2400   39.7680   17.5600 N.am  139  LEU139     -0.1977
    123  CA        30.8170   40.0460   17.5430 C.3   139  LEU139      0.1596
    124  C         30.5370   41.4910   17.9650 C.2   139  LEU139      0.2287
    125  O         31.3950   42.1520   18.5500 O.2   139  LEU139     -0.2864
    126  CB        30.1060   39.0870   18.4990 C.3   139  LEU139      0.0297
    127  CG        30.1120   37.6090   18.0870 C.3   139  LEU139      0.0022
    128  CD1       29.8540   36.7470   19.3280 C.3   139  LEU139      0.0001
    129  CD2       29.0060   37.3560   17.0340 C.3   139  LEU139      0.0001
    130  N         29.0480   44.1280   20.4930 N.3   141  VAL141     -0.1245
    131  CA        29.1400   44.0320   21.9690 C.3   141  VAL141      0.1561
    132  C         27.7930   43.6630   22.6370 C.2   141  VAL141      0.2260
    133  O         27.7780   42.8910   23.6070 O.2   141  VAL141     -0.2867
    134  CB        29.7520   45.3030   22.6090 C.3   141  VAL141      0.0252
    135  CG1       28.8380   46.5030   22.4240 C.3   141  VAL141      0.0019
    136  CG2       30.0710   45.0770   24.1100 C.3   141  VAL141      0.0019
    137  N         27.2020   40.0060   22.0110 N.3   144  SER144     -0.1217
    138  CA        28.1050   39.2690   22.9210 C.3   144  SER144      0.1889
    139  C         27.4680   39.1750   24.3180 C.2   144  SER144      0.2288
    140  O         27.4080   38.0980   24.9100 O.2   144  SER144     -0.2866
    141  CB        29.4640   39.9750   23.0300 C.3   144  SER144      0.2089
    142  OG        30.1150   39.9800   21.7700 O.3   144  SER144     -0.2183
@<TRIPOS>BOND
     1   105   106    1
     2   114   113    1
     3   111   110    1
     4   111   112    1
     5   106   109    1
     6   106   107    1
     7   110   109    1
     8   113   112    2
     9   113   115    1
    10   119   118    2
    11   107   116   am
    12   107   108    2
    13    98    99    2
    14    98    97    1
    15   116   117    1
    16   103   102    2
    17   100    97    1
    18   100   101    1
    19   118   117    1
    20   118   122   am
    21    97    96    1
    22   117   120    1
    23   121   120    1
    24   102   101    1
    25   102   104   am
    26   129   127    1
    27   123   122    1
    28   123   124    1
    29   123   126    1
    30   124   125    2
    31   127   126    1
    32   127   128    1
    33    61    60    1
    34    61    62    1
    35    64    63    1
    36    60    59    1
    37    62    63    2
    38    63    65    1
    39    25    23   am
    40    49    48    2
    41    59    56    1
    42    24    23    2
    43    56    55    1
    44    56    57    1
    45    23    22    1
    46    58    57    2
    47    50    51    1
    48    50    47    1
    49    48    55   am
    50    48    47    1
    51   130   131    1
    52    57    66   am
    53    51    52    1
    54    91    90    2
    55    47    46    1
    56    94    92    1
    57    22    21    1
    58    90    89    1
    59    73    72   ar
    60    52    54   ar
    61    52    53   ar
    62   142   141    1
    63    66    67    1
    64   131   134    1
    65   131   132    1
    66   137   138    1
    67    21    18    1
    68    92    89    1
    69    92    93    1
    70    74    72   ar
    71    72    71    1
    72    46    40   am
    73   135   134    1
    74   134   136    1
    75   132   133    2
    76    89    88    1
    77    67    68    1
    78    67    70    1
    79    41    40    2
    80   138   141    1
    81   138   139    1
    82    44    43    2
    83    95    93    1
    84    40    39    1
    85    71    70    1
    86    87    85   ar
    87    68    75   am
    88    68    69    2
    89    86    85   ar
    90    18    19    1
    91    18    17    1
    92    75    76    1
    93    88    81   am
    94    85    84    1
    95    16    14   ar
    96    20    19    2
    97    43    45   am
    98    43    42    1
    99    17    10   am
   100   139   140    2
   101    84    83    1
   102    76    77    1
   103    81    82    2
   104    81    80    1
   105    83    80    1
   106    39    42    1
   107    39    38    1
   108    14    15   ar
   109    14    13    1
   110    37    36    2
   111    80    79    1
   112    10     9    1
   113    10    11    2
   114    38    36   am
   115    36    35    1
   116    13    12    1
   117    77    78    2
   118     9    12    1
   119     9     8    1
   120    35    34    1
   121     6     5    1
   122     4     3    2
   123     8     3   am
   124    34    28   am
   125    33    31    1
   126     3     2    1
   127    32    31    1
   128    30    31    1
   129    30    27    1
   130    28    27    1
   131    28    29    2
   132     5     2    1
   133     5     7    1
   134     2     1    1
   135    27    26    1
