@<TRIPOS>MOLECULE
tmp/2haeA00.pdb
 187 174 0 0 0
SMALL
GASTEIGER

@<TRIPOS>ATOM
      1  N        -41.7960   11.4430   10.8310 N.3   132  ALA132     -0.1245
      2  CA       -41.4340   10.0540   11.0540 C.3   132  ALA132      0.1562
      3  C        -42.0010    9.6940   12.4320 C.2   132  ALA132      0.2260
      4  O        -42.2040   10.5750   13.2650 O.2   132  ALA132     -0.2867
      5  CB       -39.9260    9.8980   11.0370 C.3   132  ALA132      0.0290
      6  N        -36.8040   13.4560    1.6800 N.3   154  ASP154     -0.1239
      7  CA       -36.1430   13.3490    2.9650 C.3   154  ASP154      0.1674
      8  C        -35.6490   11.9300    3.2780 C.2   154  ASP154      0.2266
      9  O        -34.6650   11.7600    3.9830 O.2   154  ASP154     -0.2867
     10  CB       -37.0820   13.9040    4.0420 C.3   154  ASP154      0.1410
     11  CG       -37.7720   15.2160    3.5890 C.2   154  ASP154      0.3668
     12  OD1      -37.0640   16.2340    3.3380 O.co2 154  ASP154     -0.2456
     13  OD2      -39.0250   15.2210    3.4700 O.co2 154  ASP154     -0.2456
     14  N        -32.3890   11.7850    0.1810 N.3   158  THR158     -0.1218
     15  CA       -31.1910   11.9400    0.9710 C.3   158  THR158      0.1862
     16  C        -30.2350   10.7710    0.8100 C.2   158  THR158      0.2287
     17  O        -29.0490   10.9540    0.5580 O.2   158  THR158     -0.2866
     18  CB       -31.5340   12.0240    2.4300 C.3   158  THR158      0.1770
     19  OG1      -32.2800   13.2120    2.6790 O.3   158  THR158     -0.2211
     20  CG2      -30.2820   11.9870    3.2490 C.3   158  THR158      0.0375
     21  N        -28.1870   10.8380   -2.4660 N.3   161  VAL161     -0.1245
     22  CA       -27.1000   11.7980   -2.4660 C.3   161  VAL161      0.1561
     23  C        -25.9870   11.4140   -1.5060 C.2   161  VAL161      0.2260
     24  O        -24.8220   11.4670   -1.8670 O.2   161  VAL161     -0.2867
     25  CB       -27.5960   13.1760   -2.0900 C.3   161  VAL161      0.0252
     26  CG1      -26.5400   14.1910   -2.4040 C.3   161  VAL161      0.0019
     27  CG2      -28.8670   13.4780   -2.8370 C.3   161  VAL161      0.0019
     28  N        -25.1080    8.8560   12.7830 N.3   185  ASN185     -0.1225
     29  CA       -25.7530    9.4830   13.9310 C.3   185  ASN185      0.1785
     30  C        -27.1120   10.0780   13.5970 C.2   185  ASN185      0.2598
     31  O        -27.2150   10.9260   12.7170 O.2   185  ASN185     -0.2718
     32  CB       -24.8430   10.5700   14.4910 C.3   185  ASN185      0.1169
     33  CG       -25.2330   10.9900   15.8760 C.2   185  ASN185      0.2627
     34  OD1      -25.2460   10.1750   16.8040 O.2   185  ASN185     -0.2716
     35  ND2      -25.5550   12.2690   16.0340 N.am  185  ASN185     -0.0877
     36  N        -28.1490    9.6450   14.3100 N.am  186  GLY186     -0.1942
     37  CA       -29.4840   10.1510   14.0480 C.3   186  GLY186      0.2014
     38  C        -30.2430    9.2350   13.1120 C.2   186  GLY186      0.2639
     39  O        -30.2340    9.4370   11.9030 O.2   186  GLY186     -0.2714
     40  N        -30.9120    8.2320   13.6740 N.am  187  ILE187     -0.1963
     41  CA       -31.6630    7.2660   12.8860 C.3   187  ILE187      0.1727
     42  C        -33.1180    7.6650   12.6860 C.2   187  ILE187      0.2617
     43  O        -34.0300    6.9700   13.1130 O.2   187  ILE187     -0.2715
     44  CB       -31.6090    5.8690   13.5370 C.3   187  ILE187      0.0290
     45  CG1      -30.1620    5.5160   13.8600 C.3   187  ILE187      0.0022
     46  CG2      -32.2040    4.8230   12.6080 C.3   187  ILE187      0.0023
     47  CD1      -29.2620    5.5540   12.6590 C.3   187  ILE187      0.0001
     48  N        -33.3270    8.7930   12.0240 N.am  188  GLY188     -0.1940
     49  CA       -34.6740    9.2570   11.7590 C.3   188  GLY188      0.2014
     50  C        -35.0970    8.8980   10.3480 C.2   188  GLY188      0.2639
     51  O        -34.7380    7.8330    9.8450 O.2   188  GLY188     -0.2714
     52  N        -35.8590    9.7870    9.7180 N.am  189  ALA189     -0.1963
     53  CA       -36.3430    9.5960    8.3540 C.3   189  ALA189      0.1728
     54  C        -35.2020    9.3770    7.3570 C.2   189  ALA189      0.2616
     55  O        -35.2790    8.5330    6.4640 O.2   189  ALA189     -0.2715
     56  CB       -37.1670   10.8020    7.9370 C.3   189  ALA189      0.0334
     57  N        -34.1370   10.1420    7.5070 N.am  190  ALA190     -0.1963
     58  CA       -33.0120   10.0100    6.6200 C.3   190  ALA190      0.1728
     59  C        -32.1190    8.9120    7.1480 C.2   190  ALA190      0.2616
     60  O        -31.7530    8.0090    6.4150 O.2   190  ALA190     -0.2715
     61  CB       -32.2590   11.3140    6.5560 C.3   190  ALA190      0.0334
     62  N        -31.7750    8.9980    8.4290 N.am  191  GLY191     -0.1955
     63  CA       -30.9140    8.0080    9.0480 C.3   191  GLY191      0.1869
     64  C        -31.2660    6.5930    8.6530 C.2   191  GLY191      0.2309
     65  O        -30.4380    5.8860    8.0960 O.2   191  GLY191     -0.2863
     66  N        -26.2760    5.2090   15.7610 N.3   209  VAL209     -0.1231
     67  CA       -26.2490    5.9320   17.0200 C.3   209  VAL209      0.1692
     68  C        -27.3990    6.9370   17.1160 C.2   209  VAL209      0.2592
     69  O        -27.6010    7.7530   16.2090 O.2   209  VAL209     -0.2718
     70  CB       -24.9250    6.6760   17.1650 C.3   209  VAL209      0.0266
     71  CG1      -24.8690    7.4090   18.4750 C.3   209  VAL209      0.0020
     72  CG2      -23.7940    5.7000   17.0620 C.3   209  VAL209      0.0020
     73  N        -28.1560    6.8760   18.2090 N.am  210  ASP210     -0.1960
     74  CA       -29.2590    7.8000   18.3830 C.3   210  ASP210      0.1840
     75  C        -29.2280    8.4330   19.7690 C.2   210  ASP210      0.2621
     76  O        -28.2050    8.3940   20.4430 O.2   210  ASP210     -0.2715
     77  CB       -30.5910    7.0950   18.1270 C.3   210  ASP210      0.1450
     78  CG       -31.7290    8.0720   17.8820 C.2   210  ASP210      0.3671
     79  OD1      -32.3300    8.5590   18.8580 O.co2 210  ASP210     -0.2456
     80  OD2      -32.0210    8.3710   16.7090 O.co2 210  ASP210     -0.2456
     81  N        -30.3420    9.0390   20.1710 N.am  211  ARG211     -0.1977
     82  CA       -30.4540    9.7100   21.4610 C.3   211  ARG211      0.1597
     83  C        -29.9850    8.8450   22.6190 C.2   211  ARG211      0.2287
     84  O        -29.4520    9.3530   23.5970 O.2   211  ARG211     -0.2864
     85  CB       -31.9050   10.1070   21.7360 C.3   211  ARG211      0.0334
     86  CG       -32.5720   11.0160   20.7240 C.3   211  ARG211      0.0492
     87  CD       -32.0660   12.4470   20.7730 C.3   211  ARG211      0.2205
     88  NE       -32.2730   13.1300   22.0480 N.pl3 211  ARG211     -0.0865
     89  CZ       -32.3480   14.4540   22.1770 C.cat 211  ARG211      0.5346
     90  NH1      -32.2470   15.2430   21.1110 N.pl3 211  ARG211      0.1354
     91  NH2      -32.5040   14.9960   23.3750 N.pl3 211  ARG211      0.1354
     92  N        -35.8150    2.2990   20.5860 N.3   224  LEU224     -0.1245
     93  CA       -37.0190    3.0990   20.7880 C.3   224  LEU224      0.1561
     94  C        -38.1950    2.4180   20.0400 C.2   224  LEU224      0.2260
     95  O        -38.8440    1.5060   20.6030 O.2   224  LEU224     -0.2867
     96  CB       -36.7570    4.5380   20.3120 C.3   224  LEU224      0.0270
     97  CG       -35.5240    5.1600   21.0120 C.3   224  LEU224      0.0019
     98  CD1      -35.3020    6.5910   20.5570 C.3   224  LEU224      0.0001
     99  CD2      -35.7130    5.1300   22.5130 C.3   224  LEU224      0.0001
    100  N        -22.0040    8.0720   21.6000 N.3   242  LEU242     -0.1245
    101  CA       -21.4050    8.4980   20.3410 C.3   242  LEU242      0.1561
    102  C        -19.8840    8.4300   20.3750 C.2   242  LEU242      0.2260
    103  O        -19.2630    7.8530   19.4900 O.2   242  LEU242     -0.2867
    104  CB       -21.8400    9.9200   20.0060 C.3   242  LEU242      0.0270
    105  CG       -21.2440   10.4890   18.7240 C.3   242  LEU242      0.0019
    106  CD1      -21.6650    9.6430   17.5550 C.3   242  LEU242      0.0001
    107  CD2      -21.7100   11.9140   18.5460 C.3   242  LEU242      0.0001
    108  N        -26.8150   13.0620   10.7950 N.3   255  VAL255     -0.1231
    109  CA       -28.0320   13.6150   10.2340 C.3   255  VAL255      0.1692
    110  C        -28.9950   13.7370   11.4430 C.2   255  VAL255      0.2593
    111  O        -30.1110   13.2260   11.4540 O.2   255  VAL255     -0.2718
    112  CB       -28.5270   12.6840    9.0870 C.3   255  VAL255      0.0266
    113  CG1      -29.1260   11.4480    9.6330 C.3   255  VAL255      0.0020
    114  CG2      -29.4750   13.4090    8.1910 C.3   255  VAL255      0.0020
    115  N        -28.5110   14.4490   12.4660 N.am  256  SER256     -0.1938
    116  CA       -29.2160   14.6630   13.7400 C.3   256  SER256      0.2055
    117  C        -29.3730   16.1160   14.2330 C.2   256  SER256      0.2642
    118  O        -30.2770   16.8290   13.8130 O.2   256  SER256     -0.2714
    119  CB       -28.5030   13.8620   14.8260 C.3   256  SER256      0.2130
    120  OG       -27.1120   14.1250   14.8160 O.3   256  SER256     -0.2179
    121  N        -28.5200   16.5340   15.1640 N.am  257  ARG257     -0.1977
    122  CA       -28.5660   17.9020   15.6910 C.3   257  ARG257      0.1597
    123  C        -27.2090   18.5790   15.6150 C.2   257  ARG257      0.2287
    124  O        -26.2190   17.9640   15.2490 O.2   257  ARG257     -0.2864
    125  CB       -29.0320   17.9330   17.1410 C.3   257  ARG257      0.0334
    126  CG       -30.5200   17.8010   17.3530 C.3   257  ARG257      0.0492
    127  CD       -30.8270   17.9910   18.8360 C.3   257  ARG257      0.2205
    128  NE       -29.8960   17.2270   19.6840 N.pl3 257  ARG257     -0.0865
    129  CZ       -29.9210   17.2090   21.0170 C.cat 257  ARG257      0.5346
    130  NH1      -30.8330   17.9130   21.6820 N.pl3 257  ARG257      0.1354
    131  NH2      -29.0270   16.4880   21.6850 N.pl3 257  ARG257      0.1354
    132  N        -22.7460   18.4950   18.3980 N.3   260  ILE260     -0.1245
    133  CA       -22.8260   17.3600   19.2980 C.3   260  ILE260      0.1561
    134  C        -21.5960   16.4690   19.1730 C.2   260  ILE260      0.2260
    135  O        -21.3820   15.5670   19.9840 O.2   260  ILE260     -0.2867
    136  CB       -24.0890   16.5360   19.0220 C.3   260  ILE260      0.0252
    137  CG1      -24.0670   16.0010   17.5910 C.3   260  ILE260      0.0019
    138  CG2      -25.3180   17.3930   19.2720 C.3   260  ILE260      0.0019
    139  CD1      -25.2110   15.0880   17.2710 C.3   260  ILE260      0.0001
    140  N        -24.3760   16.5510    8.0810 N.3   278  LEU278     -0.1231
    141  CA       -25.5400   16.9920    7.3380 C.3   278  LEU278      0.1693
    142  C        -26.7140   17.5370    8.1200 C.2   278  LEU278      0.2592
    143  O        -27.8140   17.5770    7.5940 O.2   278  LEU278     -0.2718
    144  CB       -26.0420   15.8520    6.4740 C.3   278  LEU278      0.0284
    145  CG       -24.9940   15.0420    5.7250 C.3   278  LEU278      0.0019
    146  CD1      -25.7190   14.0990    4.7830 C.3   278  LEU278      0.0001
    147  CD2      -24.0490   15.9570    4.9580 C.3   278  LEU278      0.0001
    148  N        -26.5060   17.9520    9.3620 N.am  279  ALA279     -0.1966
    149  CA       -27.5990   18.4950   10.1460 C.3   279  ALA279      0.1728
    150  C        -27.7960   19.9610    9.8260 C.2   279  ALA279      0.2616
    151  O        -26.8330   20.7010    9.7040 O.2   279  ALA279     -0.2715
    152  CB       -27.3190   18.3280   11.6060 C.3   279  ALA279      0.0334
    153  N        -29.0530   20.3660    9.6800 N.am  280  ASN280     -0.1972
    154  CA       -29.4050   21.7530    9.4000 C.3   280  ASN280      0.1688
    155  C        -30.1980   22.3080   10.5970 C.2   280  ASN280      0.2292
    156  O        -30.9260   21.5760   11.2730 O.2   280  ASN280     -0.2864
    157  CB       -30.2620   21.8490    8.1390 C.3   280  ASN280      0.1181
    158  CG       -31.7630   21.8450    8.4520 C.2   280  ASN280      0.2629
    159  OD1      -32.2570   22.7220    9.1790 O.2   280  ASN280     -0.2716
    160  ND2      -32.4970   20.8570    7.9120 N.am  280  ASN280     -0.0877
    161  N        -24.8360   20.1530    5.0420 N.3   301  GLY301     -0.1225
    162  CA       -26.0410   20.2970    4.2500 C.3   301  GLY301      0.1811
    163  C        -26.1270   21.7150    3.7220 C.2   301  GLY301      0.2280
    164  O        -26.8290   22.0010    2.7560 O.2   301  GLY301     -0.2866
    165  N        -24.2660   18.3850    0.3720 N.3   309  VAL309     -0.1231
    166  CA       -25.0170   17.1720    0.0930 C.3   309  VAL309      0.1692
    167  C        -26.5010   17.4840    0.1760 C.2   309  VAL309      0.2592
    168  O        -27.0460   17.5200    1.2710 O.2   309  VAL309     -0.2718
    169  CB       -24.7080   16.0970    1.1310 C.3   309  VAL309      0.0266
    170  CG1      -25.4320   14.8320    0.7890 C.3   309  VAL309      0.0020
    171  CG2      -23.2240   15.8540    1.2020 C.3   309  VAL309      0.0020
    172  N        -27.1590   17.7210   -0.9550 N.am  310  ASN310     -0.1960
    173  CA       -28.5950   18.0150   -0.9160 C.3   310  ASN310      0.1819
    174  C        -29.4110   17.2500   -1.9560 C.2   310  ASN310      0.2621
    175  O        -28.9680   17.0470   -3.0830 O.2   310  ASN310     -0.2715
    176  CB       -28.8290   19.5070   -1.0840 C.3   310  ASN310      0.1195
    177  CG       -28.3630   20.0100   -2.4210 C.2   310  ASN310      0.2630
    178  OD1      -27.3130   19.5940   -2.9170 O.2   310  ASN310     -0.2716
    179  ND2      -29.1310   20.9190   -3.0140 N.am  310  ASN310     -0.0877
    180  N        -30.6140   16.8420   -1.5700 N.am  311  ASN311     -0.1972
    181  CA       -31.4790   16.0820   -2.4540 C.3   311  ASN311      0.1688
    182  C        -31.6210   16.6480   -3.8520 C.2   311  ASN311      0.2292
    183  O        -31.7930   15.8860   -4.8000 O.2   311  ASN311     -0.2864
    184  CB       -32.8700   15.9550   -1.8430 C.3   311  ASN311      0.1181
    185  CG       -32.8680   16.1990   -0.3630 C.2   311  ASN311      0.2629
    186  OD1      -32.0830   15.6030    0.3680 O.2   311  ASN311     -0.2716
    187  ND2      -33.7500   17.0820    0.0920 N.am  311  ASN311     -0.0877
@<TRIPOS>BOND
     1   183   182    2
     2   182   181    1
     3   175   174    2
     4   179   177   am
     5   178   177    2
     6    27    25    1
     7    21    22    1
     8    22    25    1
     9    22    23    1
    10   181   184    1
    11   181   180    1
    12   177   176    1
    13    26    25    1
    14   174   180   am
    15   174   173    1
    16    24    23    2
    17   184   185    1
    18   176   173    1
    19   172   173    1
    20   172   167   am
    21   185   187   am
    22   185   186    2
    23   166   167    1
    24   166   165    1
    25   166   169    1
    26   167   168    2
    27    14    15    1
    28    17    16    2
    29   170   169    1
    30    16    15    1
    31    15    18    1
    32   169   171    1
    33     6     7    1
    34    18    19    1
    35    18    20    1
    36   164   163    2
    37     7     8    1
    38     7    10    1
    39     8     9    2
    40    12    11   ar
    41    13    11   ar
    42    11    10    1
    43   163   162    1
    44   162   161    1
    45   146   145    1
    46   147   145    1
    47   145   144    1
    48    60    59    2
    49    55    54    2
    50   144   141    1
    51    61    58    1
    52    58    59    1
    53    58    57    1
    54    59    62   am
    55   141   140    1
    56   141   142    1
    57    54    57   am
    58    54    53    1
    59   143   142    2
    60   160   158   am
    61    56    53    1
    62    65    64    2
    63   142   148   am
    64   157   158    1
    65   157   154    1
    66   114   112    1
    67    53    52    1
    68    62    63    1
    69   158   159    2
    70    64    63    1
    71   112   113    1
    72   112   109    1
    73   148   149    1
    74   154   153    1
    75   154   155    1
    76   153   150   am
    77   151   150    2
    78    52    50   am
    79   150   149    1
    80    51    50    2
    81   149   152    1
    82   109   108    1
    83   109   110    1
    84    50    49    1
    85   155   156    2
    86     1     2    1
    87     5     2    1
    88     2     3    1
    89   110   111    2
    90   110   115   am
    91    49    48    1
    92    39    38    2
    93    48    42   am
    94     3     4    2
    95   115   116    1
    96    46    44    1
    97    47    45    1
    98    42    41    1
    99    42    43    2
   100    31    30    2
   101    28    29    1
   102    41    44    1
   103    41    40    1
   104    38    40   am
   105    38    37    1
   106    44    45    1
   107    30    29    1
   108    30    36   am
   109   116   117    1
   110   116   119    1
   111   118   117    2
   112    29    32    1
   113    37    36    1
   114   117   121   am
   115    32    33    1
   116   120   119    1
   117   121   122    1
   118   124   123    2
   119   123   122    1
   120   122   125    1
   121    66    67    1
   122    33    35   am
   123    33    34    2
   124    69    68    2
   125    80    78   ar
   126    67    68    1
   127    67    70    1
   128    72    70    1
   129    68    73   am
   130   125   126    1
   131    70    71    1
   132   139   137    1
   133   126   127    1
   134   106   105    1
   135   137   136    1
   136    78    77    1
   137    78    79   ar
   138    77    74    1
   139    73    74    1
   140    74    75    1
   141   132   133    1
   142   107   105    1
   143   105   104    1
   144   127   128    1
   145   136   138    1
   146   136   133    1
   147   134   133    1
   148   134   135    2
   149   103   102    2
   150   128   129    2
   151    75    81   am
   152    75    76    2
   153   104   101    1
   154    94    95    2
   155    94    93    1
   156    81    82    1
   157    96    93    1
   158    96    97    1
   159   101   102    1
   160   101   100    1
   161    98    97    1
   162    92    93    1
   163    86    87    1
   164    86    85    1
   165    87    88    1
   166    97    99    1
   167   129   130    1
   168   129   131    1
   169    90    89    1
   170    82    85    1
   171    82    83    1
   172    88    89    2
   173    89    91    1
   174    83    84    2
