@<TRIPOS>MOLECULE
tmp/2haiA00.pdb
 131 127 0 0 0
SMALL
GASTEIGER

@<TRIPOS>ATOM
      1  N         38.5790   19.9780   58.0940 N.3   417  LEU417     -0.1245
      2  CA        38.5050   18.5250   58.0160 C.3   417  LEU417      0.1561
      3  C         37.1490   18.0430   58.5170 C.2   417  LEU417      0.2260
      4  O         36.4860   17.2270   57.8680 O.2   417  LEU417     -0.2867
      5  CB        39.6470   17.9280   58.8560 C.3   417  LEU417      0.0270
      6  CG        39.8590   16.4520   59.1730 C.3   417  LEU417      0.0019
      7  CD1       41.2390   16.3240   59.8350 C.3   417  LEU417      0.0001
      8  CD2       38.7990   15.8460   60.0740 C.3   417  LEU417      0.0001
      9  N         33.8130   19.1220   56.5820 N.3   420  ARG420     -0.1231
     10  CA        33.7010   18.3620   55.3290 C.3   420  ARG420      0.1694
     11  C         33.3890   16.8830   55.5570 C.2   420  ARG420      0.2591
     12  O         32.4490   16.3310   54.9520 O.2   420  ARG420     -0.2718
     13  CB        34.9840   18.5090   54.5050 C.3   420  ARG420      0.0321
     14  CG        35.2480   19.9210   54.0400 C.3   420  ARG420      0.0489
     15  CD        36.6700   20.0600   53.4730 C.3   420  ARG420      0.2205
     16  NE        36.7510   19.5190   52.1210 N.pl3 420  ARG420     -0.0865
     17  CZ        37.8790   19.1670   51.5140 C.cat 420  ARG420      0.5346
     18  NH1       39.0500   19.2770   52.1420 N.pl3 420  ARG420      0.1354
     19  NH2       37.8320   18.6860   50.2710 N.pl3 420  ARG420      0.1354
     20  N         34.1680   16.2440   56.4240 N.am  421  MET421     -0.1979
     21  CA        34.0390   14.8140   56.6700 C.3   421  MET421      0.1605
     22  C         32.7160   14.4800   57.3580 C.2   421  MET421      0.2287
     23  O         32.0590   13.4980   57.0150 O.2   421  MET421     -0.2864
     24  CB        35.2020   14.3090   57.5290 C.3   421  MET421      0.0413
     25  CG        35.1350   12.8200   57.8550 C.3   421  MET421      0.0598
     26  SD        36.5520   12.2380   58.8130 S.3   421  MET421     -0.1393
     27  CE        36.1970   12.9080   60.4370 C.3   421  MET421      0.0692
     28  N         41.3720   20.7460   49.8900 N.3   472  LEU472     -0.1231
     29  CA        42.3630   20.7520   50.9650 C.3   472  LEU472      0.1693
     30  C         42.6210   19.3500   51.4950 C.2   472  LEU472      0.2592
     31  O         41.7150   18.5190   51.5680 O.2   472  LEU472     -0.2718
     32  CB        41.9640   21.6940   52.1140 C.3   472  LEU472      0.0284
     33  CG        41.9020   23.2000   51.8640 C.3   472  LEU472      0.0019
     34  CD1       41.7900   23.9310   53.1950 C.3   472  LEU472      0.0001
     35  CD2       43.1110   23.7100   51.0800 C.3   472  LEU472      0.0001
     36  N         43.8750   19.0900   51.8530 N.am  473  HIS473     -0.1962
     37  CA        44.2840   17.8010   52.3850 C.3   473  HIS473      0.1787
     38  C         45.5320   18.0200   53.2290 C.2   473  HIS473      0.2621
     39  O         46.0510   19.1330   53.2830 O.2   473  HIS473     -0.2715
     40  CB        44.5980   16.8360   51.2370 C.3   473  HIS473      0.0785
     41  CG        45.7250   17.3030   50.3730 C.ar  473  HIS473      0.0821
     42  ND1       47.0270   16.8890   50.5630 N.ar  473  HIS473     -0.2267
     43  CD2       45.7570   18.1900   49.3520 C.ar  473  HIS473      0.1154
     44  CE1       47.8080   17.4870   49.6820 C.ar  473  HIS473      0.1986
     45  NE2       47.0640   18.2800   48.9340 N.ar  473  HIS473     -0.2212
     46  N         45.9990   16.9530   53.8670 N.am  474  SER474     -0.1936
     47  CA        47.1960   16.9790   54.7040 C.3   474  SER474      0.2055
     48  C         47.0610   18.0780   55.7560 C.2   474  SER474      0.2643
     49  O         47.8140   19.0530   55.7760 O.2   474  SER474     -0.2714
     50  CB        48.4630   17.1470   53.8540 C.3   474  SER474      0.2130
     51  OG        48.5990   16.0660   52.9420 O.3   474  SER474     -0.2179
     52  N         46.0620   17.9100   56.6150 N.am  475  TYR475     -0.1973
     53  CA        45.8220   18.8400   57.7080 C.3   475  TYR475      0.1639
     54  C         46.9460   18.7040   58.7450 C.2   475  TYR475      0.2290
     55  O         47.6820   17.7080   58.7540 O.2   475  TYR475     -0.2864
     56  CB        44.4300   18.5830   58.2990 C.3   475  TYR475      0.0560
     57  CG        43.2950   18.9710   57.3670 C.ar  475  TYR475     -0.0198
     58  CD1       42.7570   18.0500   56.4570 C.ar  475  TYR475     -0.0009
     59  CD2       42.7620   20.2580   57.3920 C.ar  475  TYR475     -0.0009
     60  CE1       41.7030   18.4110   55.5950 C.ar  475  TYR475      0.0417
     61  CE2       41.7160   20.6310   56.5380 C.ar  475  TYR475      0.0417
     62  CZ        41.1910   19.7020   55.6440 C.ar  475  TYR475      0.1957
     63  OH        40.1540   20.0790   54.8190 O.3   475  TYR475     -0.2866
     64  N         44.5780   17.4870   63.3830 N.3   480  ILE480     -0.1245
     65  CA        44.1530   16.0920   63.3630 C.3   480  ILE480      0.1561
     66  C         44.0270   15.5140   64.7720 C.2   480  ILE480      0.2260
     67  O         43.0640   14.8070   65.0720 O.2   480  ILE480     -0.2867
     68  CB        45.0720   15.2220   62.4510 C.3   480  ILE480      0.0252
     69  CG1       44.9410   15.6790   61.0000 C.3   480  ILE480      0.0019
     70  CG2       44.7170   13.7470   62.5650 C.3   480  ILE480      0.0019
     71  CD1       46.0260   15.1100   60.0510 C.3   480  ILE480      0.0001
     72  N         40.8570   16.9510   66.4730 N.3   483  VAL483     -0.1231
     73  CA        39.6810   16.2480   65.9490 C.3   483  VAL483      0.1692
     74  C         39.6250   14.8220   66.5210 C.2   483  VAL483      0.2591
     75  O         38.5760   14.3810   66.9950 O.2   483  VAL483     -0.2718
     76  CB        39.6390   16.2410   64.4000 C.3   483  VAL483      0.0266
     77  CG1       38.4750   15.3770   63.8920 C.3   483  VAL483      0.0020
     78  CG2       39.5190   17.6560   63.8550 C.3   483  VAL483      0.0020
     79  N         40.7610   14.1150   66.5130 N.am  484  ALA484     -0.1980
     80  CA        40.8210   12.7640   67.0770 C.3   484  ALA484      0.1597
     81  C         40.2990   12.6760   68.5150 C.2   484  ALA484      0.2287
     82  O         39.5320   11.7660   68.8500 O.2   484  ALA484     -0.2864
     83  CB        42.2540   12.1980   66.9900 C.3   484  ALA484      0.0319
     84  N         36.4770   13.0970   68.5480 N.3   487  LEU487     -0.1245
     85  CA        35.7490   11.9180   68.0710 C.3   487  LEU487      0.1561
     86  C         35.6990   10.8170   69.1220 C.2   487  LEU487      0.2260
     87  O         34.6640   10.1740   69.2990 O.2   487  LEU487     -0.2867
     88  CB        36.3230   11.4030   66.7450 C.3   487  LEU487      0.0270
     89  CG        36.5420   12.3760   65.5750 C.3   487  LEU487      0.0019
     90  CD1       36.8510   11.5810   64.3090 C.3   487  LEU487      0.0001
     91  CD2       35.3750   13.3420   65.3170 C.3   487  LEU487      0.0001
     92  N         34.8240    6.8890   62.8430 N.3   494  PRO494     -0.2102
     93  CA        36.1000    7.2500   62.2250 C.3   494  PRO494      0.1504
     94  C         36.0000    7.5820   60.7300 C.2   494  PRO494      0.2575
     95  O         34.9580    7.3560   60.0990 O.2   494  PRO494     -0.2718
     96  CB        36.9370    5.9830   62.4200 C.3   494  PRO494      0.0282
     97  CG        35.9470    4.8940   62.3400 C.3   494  PRO494      0.0208
     98  CD        34.7350    5.4360   63.0850 C.3   494  PRO494      0.0893
     99  N         37.1000    8.0880   60.1730 N.am  495  LEU495     -0.1980
    100  CA        37.1860    8.4990   58.7740 C.3   495  LEU495      0.1596
    101  C         36.6460    7.4690   57.7810 C.2   495  LEU495      0.2287
    102  O         35.9380    7.8410   56.8460 O.2   495  LEU495     -0.2864
    103  CB        38.6360    8.8670   58.4150 C.3   495  LEU495      0.0297
    104  CG        39.0310    9.1240   56.9510 C.3   495  LEU495      0.0022
    105  CD1       38.2900   10.2800   56.2850 C.3   495  LEU495      0.0001
    106  CD2       40.5440    9.3440   56.8670 C.3   495  LEU495      0.0001
    107  N         33.8380    8.3190   55.1060 N.3   499  ARG499     -0.1245
    108  CA        34.1690    8.2150   53.6810 C.3   499  ARG499      0.1563
    109  C         33.1430    7.3290   52.9600 C.2   499  ARG499      0.2260
    110  O         32.6300    7.7040   51.9060 O.2   499  ARG499     -0.2867
    111  CB        35.5940    7.6890   53.4730 C.3   499  ARG499      0.0307
    112  CG        36.1010    7.8450   52.0450 C.3   499  ARG499      0.0489
    113  CD        37.4090    7.0850   51.8180 C.3   499  ARG499      0.2205
    114  NE        38.5770    7.8500   52.2630 N.pl3 499  ARG499     -0.0865
    115  CZ        39.3660    7.5330   53.2920 C.cat 499  ARG499      0.5346
    116  NH1       39.1400    6.4470   54.0290 N.pl3 499  ARG499      0.1354
    117  NH2       40.3980    8.3160   53.5830 N.pl3 499  ARG499      0.1354
    118  N         36.4450   14.8450   47.7940 N.3   526  TRP526     -0.1241
    119  CA        37.4270   14.2660   48.7200 C.3   526  TRP526      0.1605
    120  C         37.2460   12.7720   48.9870 C.2   526  TRP526      0.2264
    121  O         38.2060   12.0850   49.3210 O.2   526  TRP526     -0.2867
    122  CB        37.4360   15.0310   50.0570 C.3   526  TRP526      0.0550
    123  CG        36.1410   14.9430   50.8410 C.ar  526  TRP526      0.0003
    124  CD1       35.0940   15.8150   50.7840 C.ar  526  TRP526      0.0946
    125  CD2       35.7710   13.9320   51.7940 C.ar  526  TRP526      0.0152
    126  NE1       34.0890   15.4120   51.6390 N.ar  526  TRP526     -0.2442
    127  CE2       34.4740   14.2610   52.2700 C.ar  526  TRP526      0.0810
    128  CE3       36.4010   12.7800   52.2890 C.ar  526  TRP526      0.0012
    129  CZ2       33.8010   13.4810   53.2150 C.ar  526  TRP526      0.0191
    130  CZ3       35.7280   11.9990   53.2320 C.ar  526  TRP526      0.0001
    131  CH2       34.4360   12.3570   53.6810 C.ar  526  TRP526      0.0015
@<TRIPOS>BOND
     1   118   119    1
     2   119   120    1
     3   119   122    1
     4    45    43   ar
     5    45    44   ar
     6   120   121    2
     7    43    41   ar
     8    44    42   ar
     9    28    29    1
    10   122   123    1
    11    19    17    1
    12    41    42   ar
    13    41    40    1
    14   124   123   ar
    15   124   126   ar
    16   123   125   ar
    17    29    30    1
    18    29    32    1
    19    35    33    1
    20    40    37    1
    21    30    31    2
    22    30    36   am
    23    17    16    2
    24    17    18    1
    25   126   127   ar
    26   125   127   ar
    27   125   128   ar
    28   113   112    1
    29   113   114    1
    30    36    37    1
    31    33    32    1
    32    33    34    1
    33   110   109    2
    34   112   111    1
    35    16    15    1
    36   114   115    2
    37   127   129   ar
    38   128   130   ar
    39    37    38    1
    40    51    50    1
    41   109   108    1
    42   129   131   ar
    43    38    39    2
    44    38    46   am
    45   130   131   ar
    46   115   117    1
    47   115   116    1
    48    15    14    1
    49   111   108    1
    50   108   107    1
    51    50    47    1
    52    46    47    1
    53    14    13    1
    54    13    10    1
    55    47    48    1
    56    63    62    1
    57    12    11    2
    58    10    11    1
    59    10     9    1
    60    11    20   am
    61    60    62   ar
    62    60    58   ar
    63    62    61   ar
    64    48    49    2
    65    48    52   am
    66   105   104    1
    67    20    21    1
    68    58    57   ar
    69    61    59   ar
    70    52    53    1
    71    21    22    1
    72    21    24    1
    73   102   101    2
    74   106   104    1
    75   104   103    1
    76    23    22    2
    77    57    59   ar
    78    57    56    1
    79    24    25    1
    80    53    56    1
    81    53    54    1
    82   101   100    1
    83    25    26    1
    84     4     3    2
    85     2     1    1
    86     2     3    1
    87     2     5    1
    88   103   100    1
    89    54    55    2
    90   100    99    1
    91    26    27    1
    92     5     6    1
    93     6     7    1
    94     6     8    1
    95    71    69    1
    96    95    94    2
    97    99    94   am
    98    94    93    1
    99    69    68    1
   100    93    96    1
   101    93    92    1
   102    97    96    1
   103    97    98    1
   104    68    70    1
   105    68    65    1
   106    92    98    1
   107    65    64    1
   108    65    66    1
   109    78    76    1
   110    77    76    1
   111    90    89    1
   112    76    73    1
   113    66    67    2
   114    91    89    1
   115    89    88    1
   116    73    72    1
   117    73    74    1
   118    79    74   am
   119    79    80    1
   120    74    75    2
   121    88    85    1
   122    83    80    1
   123    80    81    1
   124    85    84    1
   125    85    86    1
   126    81    82    2
   127    86    87    2
