@<TRIPOS>MOLECULE
tmp/2halA00.pdb
 149 143 0 0 0
SMALL
GASTEIGER

@<TRIPOS>ATOM
      1  N         -8.0420    4.4830   27.4500 N.3    28  VAL28      -0.1231
      2  CA        -7.7980    3.1810   28.0890 C.3    28  VAL28       0.1692
      3  C         -6.9990    3.3160   29.3970 C.2    28  VAL28       0.2591
      4  O         -7.3870    2.7680   30.4340 O.2    28  VAL28      -0.2718
      5  CB        -7.0640    2.2060   27.0960 C.3    28  VAL28       0.0266
      6  CG1       -6.7240    0.8570   27.7560 C.3    28  VAL28       0.0020
      7  CG2       -7.8910    1.9810   25.8360 C.3    28  VAL28       0.0020
      8  N         -5.8800    4.0310   29.3410 N.am   29  MET29      -0.1979
      9  CA        -4.9410    4.0630   30.4580 C.3    29  MET29       0.1605
     10  C         -3.9150    5.1720   30.2850 C.2    29  MET29       0.2287
     11  O         -4.0680    6.0430   29.4340 O.2    29  MET29      -0.2864
     12  CB        -4.2470    2.6980   30.6250 C.3    29  MET29       0.0413
     13  CG        -3.3220    2.2710   29.4800 C.3    29  MET29       0.0598
     14  SD        -2.4590    0.7190   29.8290 S.3    29  MET29      -0.1393
     15  CE        -3.8280   -0.4360   29.8700 C.3    29  MET29       0.0692
     16  N         -0.9590   -4.6660   26.9210 N.3    44  HIS44      -0.1241
     17  CA        -2.3200   -5.2000   27.0900 C.3    44  HIS44       0.1621
     18  C         -3.3940   -4.1630   26.7650 C.2    44  HIS44       0.2264
     19  O         -4.5670   -4.5000   26.6100 O.2    44  HIS44      -0.2867
     20  CB        -2.5490   -5.8970   28.4470 C.3    44  HIS44       0.0745
     21  CG        -2.7310   -4.9780   29.6170 C.ar   44  HIS44       0.0817
     22  ND1       -1.8700   -4.9810   30.6940 N.ar   44  HIS44      -0.2268
     23  CD2       -3.7000   -4.0780   29.9150 C.ar   44  HIS44       0.1154
     24  CE1       -2.2800   -4.0990   31.5890 C.ar   44  HIS44       0.1986
     25  NE2       -3.3880   -3.5360   31.1410 N.ar   44  HIS44      -0.2212
     26  N          4.3990  -13.0510   38.1010 N.3   141  ALA141     -0.1231
     27  CA         3.0730  -12.5950   38.5170 C.3   141  ALA141      0.1694
     28  C          2.0390  -12.8780   37.4340 C.2   141  ALA141      0.2593
     29  O          2.2950  -12.6590   36.2490 O.2   141  ALA141     -0.2718
     30  CB         3.0950  -11.1090   38.8490 C.3   141  ALA141      0.0304
     31  N          0.8700  -13.3550   37.8540 N.am  142  THR142     -0.1939
     32  CA        -0.2250  -13.6540   36.9360 C.3   142  THR142      0.2028
     33  C         -1.4540  -12.8140   37.2760 C.2   142  THR142      0.2642
     34  O         -1.8050  -12.6500   38.4470 O.2   142  THR142     -0.2714
     35  CB        -0.5880  -15.1600   36.9600 C.3   142  THR142      0.1808
     36  OG1        0.6120  -15.9430   36.9500 O.3   142  THR142     -0.2208
     37  CG2       -1.4480  -15.5420   35.7550 C.3   142  THR142      0.0379
     38  N         -2.0880  -12.2650   36.2430 N.am  143  TYR143     -0.1959
     39  CA        -3.3100  -11.4780   36.4010 C.3   143  TYR143      0.1771
     40  C         -4.2400  -11.6670   35.2080 C.2   143  TYR143      0.2619
     41  O         -3.8180  -12.1270   34.1450 O.2   143  TYR143     -0.2715
     42  CB        -2.9970   -9.9920   36.6240 C.3   143  TYR143      0.0574
     43  CG        -2.0280   -9.3880   35.6280 C.ar  143  TYR143     -0.0198
     44  CD1       -2.4860   -8.6820   34.5170 C.ar  143  TYR143     -0.0009
     45  CD2       -0.6490   -9.5090   35.8140 C.ar  143  TYR143     -0.0009
     46  CE1       -1.5840   -8.1200   33.6000 C.ar  143  TYR143      0.0417
     47  CE2        0.2520   -8.9600   34.9130 C.ar  143  TYR143      0.0417
     48  CZ        -0.2140   -8.2660   33.8130 C.ar  143  TYR143      0.1957
     49  OH         0.7080   -7.7280   32.9400 O.3   143  TYR143     -0.2866
     50  N         -5.5070  -11.3170   35.3940 N.am  144  VAL144     -0.1963
     51  CA        -6.5130  -11.5320   34.3680 C.3   144  VAL144      0.1727
     52  C         -6.9060  -10.2190   33.6750 C.2   144  VAL144      0.2616
     53  O         -7.2950   -9.2420   34.3180 O.2   144  VAL144     -0.2715
     54  CB        -7.7280  -12.3580   34.9180 C.3   144  VAL144      0.0290
     55  CG1       -8.5400  -11.5660   35.9140 C.3   144  VAL144      0.0023
     56  CG2       -8.6020  -12.8690   33.7910 C.3   144  VAL144      0.0023
     57  N         -6.7560  -10.2070   32.3540 N.am  145  HIS145     -0.1959
     58  CA        -7.0690   -9.0450   31.5380 C.3   145  HIS145      0.1787
     59  C         -8.4230   -9.2370   30.8710 C.2   145  HIS145      0.2620
     60  O         -8.6480  -10.2370   30.1920 O.2   145  HIS145     -0.2715
     61  CB        -5.9750   -8.8310   30.4840 C.3   145  HIS145      0.0785
     62  CG        -6.2820   -7.7420   29.5010 C.ar  145  HIS145      0.0821
     63  ND1       -6.5300   -7.9870   28.1680 N.ar  145  HIS145     -0.2267
     64  CD2       -6.3940   -6.4040   29.6620 C.ar  145  HIS145      0.1154
     65  CE1       -6.7770   -6.8450   27.5500 C.ar  145  HIS145      0.1986
     66  NE2       -6.7060   -5.8690   28.4360 N.ar  145  HIS145     -0.2212
     67  N         -9.3290   -8.2870   31.0870 N.am  146  LYS146     -0.1977
     68  CA       -10.6330   -8.3140   30.4370 C.3   146  LYS146      0.1596
     69  C        -10.5680   -7.5140   29.1430 C.2   146  LYS146      0.2287
     70  O        -10.2620   -6.3170   29.1400 O.2   146  LYS146     -0.2864
     71  CB       -11.7330   -7.7870   31.3690 C.3   146  LYS146      0.0298
     72  CG       -13.1590   -7.9880   30.8650 C.3   146  LYS146      0.0038
     73  CD       -14.1830   -7.5370   31.9010 C.3   146  LYS146      0.0206
     74  CE       -14.3550   -8.5710   33.0140 C.3   146  LYS146      0.1093
     75  NZ       -15.2360   -8.0820   34.1110 N.3   146  LYS146     -0.1314
     76  N        -12.0770  -12.7110   29.2150 N.3   152  THR152     -0.1218
     77  CA       -10.8390  -12.4730   29.9520 C.3   152  THR152      0.1862
     78  C         -9.7120  -13.4170   29.5460 C.2   152  THR152      0.2287
     79  O         -9.9450  -14.5870   29.2440 O.2   152  THR152     -0.2866
     80  CB       -11.0550  -12.5840   31.4740 C.3   152  THR152      0.1770
     81  OG1      -11.5940  -13.8730   31.7910 O.3   152  THR152     -0.2211
     82  CG2      -12.0020  -11.4950   31.9720 C.3   152  THR152      0.0375
     83  N          4.7620   -6.3060   44.0300 N.3   162  ARG162     -0.1245
     84  CA         3.4710   -6.5210   44.6510 C.3   162  ARG162      0.1563
     85  C          3.4310   -5.7410   45.9510 C.2   162  ARG162      0.2260
     86  O          4.3280   -5.8750   46.7990 O.2   162  ARG162     -0.2867
     87  CB         3.2930   -7.9960   44.9770 C.3   162  ARG162      0.0307
     88  CG         2.7900   -8.8470   43.8370 C.3   162  ARG162      0.0489
     89  CD         2.6020  -10.2840   44.2990 C.3   162  ARG162      0.2205
     90  NE         1.6690  -10.4130   45.4180 N.pl3 162  ARG162     -0.0865
     91  CZ         0.4120  -10.8360   45.3050 C.cat 162  ARG162      0.5346
     92  NH1       -0.0810  -11.1730   44.1180 N.pl3 162  ARG162      0.1354
     93  NH2       -0.3560  -10.9180   46.3830 N.pl3 162  ARG162      0.1354
     94  N         -9.7350    1.1800   37.9040 N.3   169  PRO169     -0.2116
     95  CA        -9.5480    1.0830   36.4640 C.3   169  PRO169      0.1372
     96  C         -8.9360    2.3720   35.9100 C.2   169  PRO169      0.2244
     97  O         -9.2100    3.4670   36.4080 O.2   169  PRO169     -0.2868
     98  CB       -10.9700    0.8700   35.9390 C.3   169  PRO169      0.0268
     99  CG       -11.6970    0.2260   37.0830 C.3   169  PRO169      0.0207
    100  CD       -11.1210    0.8650   38.3070 C.3   169  PRO169      0.0892
    101  N         -3.4980    1.8530   35.2840 N.3   172  CYS172     -0.1235
    102  CA        -2.3870    1.2090   34.5980 C.3   172  CYS172      0.1677
    103  C         -1.5880    2.2350   33.8200 C.2   172  CYS172      0.2270
    104  O         -2.1450    3.2190   33.3220 O.2   172  CYS172     -0.2867
    105  CB        -2.9000    0.1220   33.6430 C.3   172  CYS172      0.0956
    106  SG        -3.5740   -1.3140   34.4630 S.3   172  CYS172     -0.0801
    107  N          0.5070   -2.3870   36.3000 N.3   192  VAL192     -0.1231
    108  CA        -0.1590   -3.2460   35.2980 C.3   192  VAL192      0.1692
    109  C         -1.4510   -3.9280   35.7570 C.2   192  VAL192      0.2592
    110  O         -2.2400   -4.3580   34.9150 O.2   192  VAL192     -0.2718
    111  CB         0.7890   -4.3440   34.7030 C.3   192  VAL192      0.0266
    112  CG1        1.8340   -3.7410   33.7950 C.3   192  VAL192      0.0020
    113  CG2        1.4610   -5.1480   35.7950 C.3   192  VAL192      0.0020
    114  N         -1.6540   -4.0690   37.0670 N.am  193  ALA193     -0.1966
    115  CA        -2.8300   -4.7860   37.5660 C.3   193  ALA193      0.1728
    116  C         -3.1450   -4.4600   39.0140 C.2   193  ALA193      0.2617
    117  O         -2.2570   -4.1140   39.7910 O.2   193  ALA193     -0.2715
    118  CB        -2.6500   -6.2980   37.4110 C.3   193  ALA193      0.0334
    119  N         -4.4180   -4.6050   39.3670 N.am  194  GLY194     -0.1940
    120  CA        -4.8810   -4.4400   40.7440 C.3   194  GLY194      0.2014
    121  C         -6.0820   -5.3130   41.0380 C.2   194  GLY194      0.2639
    122  O         -6.8010   -5.7270   40.1280 O.2   194  GLY194     -0.2714
    123  N         -6.3030   -5.5950   42.3160 N.am  195  GLY195     -0.1939
    124  CA        -7.4620   -6.3780   42.7380 C.3   195  GLY195      0.2014
    125  C         -7.2070   -7.0230   44.0760 C.2   195  GLY195      0.2638
    126  O         -6.0570   -7.2580   44.4390 O.2   195  GLY195     -0.2714
    127  N         -8.2840   -7.3140   44.8070 N.am  196  ASN196     -0.1972
    128  CA        -8.1940   -7.8600   46.1620 C.3   196  ASN196      0.1688
    129  C         -7.2090   -7.0930   47.0520 C.2   196  ASN196      0.2292
    130  O         -6.4520   -7.6890   47.8230 O.2   196  ASN196     -0.2864
    131  CB        -7.8630   -9.3600   46.1340 C.3   196  ASN196      0.1181
    132  CG        -9.0170  -10.2140   45.6220 C.2   196  ASN196      0.2629
    133  OD1       -8.8400  -11.4020   45.3480 O.2   196  ASN196     -0.2716
    134  ND2      -10.2010   -9.6180   45.4970 N.am  196  ASN196     -0.0877
    135  N         -4.5480   -5.6010   46.2770 N.3   198  ILE198     -0.1245
    136  CA        -3.1440   -5.7750   45.8950 C.3   198  ILE198      0.1561
    137  C         -2.8490   -5.0670   44.5690 C.2   198  ILE198      0.2260
    138  O         -3.6900   -5.0710   43.6660 O.2   198  ILE198     -0.2867
    139  CB        -2.6990   -7.2810   45.9360 C.3   198  ILE198      0.0252
    140  CG1       -1.1760   -7.4250   45.7820 C.3   198  ILE198      0.0019
    141  CG2       -3.4840   -8.1430   44.9580 C.3   198  ILE198      0.0019
    142  CD1       -0.6880   -7.5850   44.3640 C.3   198  ILE198      0.0001
    143  N          0.0110   -4.4910   41.3760 N.3   200  VAL200     -0.1245
    144  CA         1.1330   -5.1560   40.6890 C.3   200  VAL200      0.1561
    145  C          1.7330   -4.2420   39.6250 C.2   200  VAL200      0.2260
    146  O          1.0150   -3.7290   38.7710 O.2   200  VAL200     -0.2867
    147  CB         0.7040   -6.4730   40.0200 C.3   200  VAL200      0.0252
    148  CG1        1.8710   -7.1230   39.2870 C.3   200  VAL200      0.0019
    149  CG2        0.1560   -7.4320   41.0460 C.3   200  VAL200      0.0019
@<TRIPOS>BOND
     1     7     5    1
     2    19    18    2
     3    18    17    1
     4    16    17    1
     5    17    20    1
     6     5     6    1
     7     5     2    1
     8     1     2    1
     9    65    63   ar
    10    65    66   ar
    11     2     3    1
    12    63    62   ar
    13    66    64   ar
    14    20    21    1
    15    70    69    2
    16    69    68    1
    17    76    77    1
    18    79    78    2
    19     8     3   am
    20     8     9    1
    21     3     4    2
    22    11    10    2
    23    13    14    1
    24    13    12    1
    25    62    64   ar
    26    62    61    1
    27    78    77    1
    28    21    23   ar
    29    21    22   ar
    30    14    15    1
    31    23    25   ar
    32    77    80    1
    33    60    59    2
    34    10     9    1
    35    68    67    1
    36    68    71    1
    37     9    12    1
    38    61    58    1
    39    22    24   ar
    40    72    71    1
    41    72    73    1
    42    59    67   am
    43    59    58    1
    44    25    24   ar
    45    80    81    1
    46    80    82    1
    47    58    57    1
    48    73    74    1
    49    57    52   am
    50    49    48    1
    51    74    75    1
    52   104   103    2
    53    46    48   ar
    54    46    44   ar
    55   105   106    1
    56   105   102    1
    57    52    53    2
    58    52    51    1
    59    56    54    1
    60   112   111    1
    61    48    47   ar
    62   103   102    1
    63    41    40    2
    64    51    54    1
    65    51    50    1
    66    44    43   ar
    67   102   101    1
    68   111   108    1
    69   111   113    1
    70    47    45   ar
    71   110   109    2
    72    54    55    1
    73    40    50   am
    74    40    39    1
    75   108   109    1
    76   108   107    1
    77    43    45   ar
    78    43    42    1
    79    37    35    1
    80   109   114   am
    81    96    97    2
    82    96    95    1
    83    98    95    1
    84    98    99    1
    85    38    39    1
    86    38    33   am
    87    29    28    2
    88    39    42    1
    89    95    94    1
    90    32    35    1
    91    32    33    1
    92    32    31    1
    93    36    35    1
    94   114   115    1
    95    99   100    1
    96    33    34    2
    97   118   115    1
    98    28    31   am
    99    28    27    1
   100   115   116    1
   101    94   100    1
   102    26    27    1
   103    27    30    1
   104   146   145    2
   105   116   119   am
   106   116   117    2
   107   148   147    1
   108   119   120    1
   109   145   144    1
   110   147   144    1
   111   147   149    1
   112   122   121    2
   113   144   143    1
   114   120   121    1
   115   121   123   am
   116   123   124    1
   117   124   125    1
   118   138   137    2
   119    88    89    1
   120    88    87    1
   121    83    84    1
   122   125   126    2
   123   125   127   am
   124    92    91    1
   125    89    90    1
   126   142   140    1
   127   137   136    1
   128    84    87    1
   129    84    85    1
   130   127   128    1
   131   141   139    1
   132    91    90    2
   133    91    93    1
   134   133   132    2
   135   134   132   am
   136   132   131    1
   137   140   139    1
   138   136   139    1
   139   136   135    1
   140    85    86    2
   141   131   128    1
   142   128   129    1
   143   129   130    2
