@<TRIPOS>MOLECULE
tmp/2hauB01.pdb
 78 74 0 0 0
SMALL
GASTEIGER

@<TRIPOS>ATOM
      1  N         -0.1730  -50.6280  -22.9230 N.3    59  ASP59      -0.1239
      2  CA        -1.4490  -51.1840  -22.4480 C.3    59  ASP59       0.1674
      3  C         -2.1820  -49.9530  -21.8780 C.2    59  ASP59       0.2266
      4  O         -1.5560  -48.8910  -21.6980 O.2    59  ASP59      -0.2867
      5  CB        -1.2530  -52.1770  -21.2810 C.3    59  ASP59       0.1410
      6  CG        -0.7960  -53.5680  -21.7280 C.2    59  ASP59       0.3668
      7  OD1       -0.2440  -53.6980  -22.8500 O.co2  59  ASP59      -0.2456
      8  OD2       -0.9710  -54.5350  -20.9380 O.co2  59  ASP59      -0.2456
      9  N        -11.8970  -52.8760  -25.6680 N.3    91  TYR91      -0.1241
     10  CA       -12.5460  -54.0240  -25.0520 C.3    91  TYR91       0.1605
     11  C        -13.2190  -53.4530  -23.8250 C.2    91  TYR91       0.2264
     12  O        -12.7650  -52.4530  -23.2690 O.2    91  TYR91      -0.2867
     13  CB       -11.5520  -55.1040  -24.6630 C.3    91  TYR91       0.0534
     14  CG       -10.7430  -54.8190  -23.4330 C.ar   91  TYR91      -0.0201
     15  CD1      -11.2240  -55.1240  -22.1730 C.ar   91  TYR91      -0.0009
     16  CD2       -9.4360  -54.3630  -23.5450 C.ar   91  TYR91      -0.0009
     17  CE1      -10.4080  -55.0020  -21.0620 C.ar   91  TYR91       0.0417
     18  CE2       -8.6150  -54.2350  -22.4410 C.ar   91  TYR91       0.0417
     19  CZ        -9.0950  -54.5630  -21.2110 C.ar   91  TYR91       0.1957
     20  OH        -8.2280  -54.5180  -20.1470 O.3    91  TYR91      -0.2866
     21  N        -11.0080  -62.3140  -12.0560 N.3   115  THR115     -0.1218
     22  CA       -10.1250  -63.1520  -12.8650 C.3   115  THR115      0.1862
     23  C         -8.8390  -63.3730  -12.0770 C.2   115  THR115      0.2287
     24  O         -8.3010  -64.4860  -12.0170 O.2   115  THR115     -0.2866
     25  CB        -9.7340  -62.4960  -14.1450 C.3   115  THR115      0.1770
     26  OG1       -9.1430  -61.2400  -13.8400 O.3   115  THR115     -0.2211
     27  CG2      -10.9340  -62.2950  -15.0170 C.3   115  THR115      0.0375
     28  N         -4.7820  -57.7170   -9.1990 N.3   118  GLY118     -0.1210
     29  CA        -3.8450  -56.9440   -9.9940 C.3   118  GLY118      0.1956
     30  C         -4.2140  -56.8860  -11.4710 C.2   118  GLY118      0.2612
     31  O         -3.5500  -56.2150  -12.2510 O.2   118  GLY118     -0.2717
     32  N         -5.2640  -57.5730  -11.8870 N.am  119  ARG119     -0.1965
     33  CA        -5.6400  -57.5200  -13.2900 C.3   119  ARG119      0.1729
     34  C         -6.6190  -56.3640  -13.5310 C.2   119  ARG119      0.2617
     35  O         -7.2990  -55.8850  -12.6060 O.2   119  ARG119     -0.2715
     36  CB        -6.2710  -58.8420  -13.6810 C.3   119  ARG119      0.0348
     37  CG        -5.2910  -59.9060  -14.0590 C.3   119  ARG119      0.0492
     38  CD        -5.9850  -61.2490  -14.1420 C.3   119  ARG119      0.2205
     39  NE        -5.3670  -62.1090  -15.1440 N.pl3 119  ARG119     -0.0865
     40  CZ        -5.7570  -63.3500  -15.4270 C.cat 119  ARG119      0.5346
     41  NH1       -6.7770  -63.9100  -14.7880 N.pl3 119  ARG119      0.1354
     42  NH2       -5.1240  -64.0340  -16.3620 N.pl3 119  ARG119      0.1354
     43  N         -6.7040  -55.9320  -14.7840 N.am  120  SER120     -0.1936
     44  CA        -7.5870  -54.8230  -15.1370 C.3   120  SER120      0.2055
     45  C         -9.0690  -55.1340  -14.9350 C.2   120  SER120      0.2643
     46  O         -9.6220  -54.8800  -13.8680 O.2   120  SER120     -0.2714
     47  CB        -7.3490  -54.3830  -16.5880 C.3   120  SER120      0.2130
     48  OG        -6.4750  -53.2590  -16.6550 O.3   120  SER120     -0.2179
     49  N         -9.6950  -55.6780  -15.9720 N.am  121  ALA121     -0.1963
     50  CA       -11.1100  -56.0360  -15.9940 C.3   121  ALA121      0.1728
     51  C        -11.5730  -56.8440  -14.8250 C.2   121  ALA121      0.2616
     52  O        -12.7130  -56.7020  -14.3760 O.2   121  ALA121     -0.2715
     53  CB       -11.4170  -56.8100  -17.2600 C.3   121  ALA121      0.0334
     54  N        -10.6960  -57.7170  -14.3460 N.am  122  GLY122     -0.1955
     55  CA       -11.0620  -58.5780  -13.2430 C.3   122  GLY122      0.1869
     56  C        -10.8640  -57.9800  -11.8680 C.2   122  GLY122      0.2309
     57  O        -11.4500  -58.4630  -10.8960 O.2   122  GLY122     -0.2863
     58  N        -10.3790  -65.3750  -16.8170 N.3   183  TYR183     -0.1241
     59  CA       -11.6980  -65.0520  -17.3340 C.3   183  TYR183      0.1605
     60  C        -12.6310  -66.2640  -17.2180 C.2   183  TYR183      0.2264
     61  O        -13.7170  -66.1770  -16.6410 O.2   183  TYR183     -0.2867
     62  CB       -11.5670  -64.5770  -18.7800 C.3   183  TYR183      0.0534
     63  CG       -11.0240  -63.1730  -18.8950 C.ar  183  TYR183     -0.0201
     64  CD1      -11.8040  -62.0790  -18.5410 C.ar  183  TYR183     -0.0009
     65  CD2       -9.7500  -62.9370  -19.3990 C.ar  183  TYR183     -0.0009
     66  CE1      -11.3320  -60.7810  -18.6960 C.ar  183  TYR183      0.0417
     67  CE2       -9.2620  -61.6440  -19.5620 C.ar  183  TYR183      0.0417
     68  CZ       -10.0600  -60.5640  -19.2150 C.ar  183  TYR183      0.1957
     69  OH        -9.6170  -59.2690  -19.4380 O.3   183  TYR183     -0.2866
     70  N        -14.1590  -59.7310  -19.1010 N.3   201  LYS201     -0.1245
     71  CA       -14.2080  -58.9310  -20.3370 C.3   201  LYS201      0.1561
     72  C        -15.5540  -59.0940  -21.0590 C.2   201  LYS201      0.2260
     73  O        -16.3610  -59.9740  -20.7450 O.2   201  LYS201     -0.2867
     74  CB       -13.0870  -59.3480  -21.3110 C.3   201  LYS201      0.0271
     75  CG       -11.7680  -58.5970  -21.2060 C.3   201  LYS201      0.0035
     76  CD       -10.6730  -59.1020  -22.1740 C.3   201  LYS201      0.0206
     77  CE       -10.9620  -58.7570  -23.6680 C.3   201  LYS201      0.1093
     78  NZ        -9.9020  -59.2130  -24.6560 N.3   201  LYS201     -0.1314
@<TRIPOS>BOND
     1     9    10    1
     2    10    13    1
     3    10    11    1
     4    13    14    1
     5    78    77    1
     6    11    12    2
     7    77    76    1
     8    16    14   ar
     9    16    18   ar
    10    14    15   ar
    11     1     2    1
    12     7     6   ar
    13     2     3    1
    14     2     5    1
    15    18    19   ar
    16    76    75    1
    17    15    17   ar
    18     3     4    2
    19     6     5    1
    20     6     8   ar
    21    74    75    1
    22    74    71    1
    23    19    17   ar
    24    19    20    1
    25    72    73    2
    26    72    71    1
    27    71    70    1
    28    67    65   ar
    29    67    68   ar
    30    69    68    1
    31    65    63   ar
    32    68    66   ar
    33    63    62    1
    34    63    64   ar
    35    62    59    1
    36    66    64   ar
    37    59    60    1
    38    59    58    1
    39    53    50    1
    40    60    61    2
    41    48    47    1
    42    47    44    1
    43    42    40    1
    44    50    49    1
    45    50    51    1
    46    49    45   am
    47    40    39    2
    48    40    41    1
    49    39    38    1
    50    44    45    1
    51    44    43    1
    52    27    25    1
    53    45    46    2
    54    51    52    2
    55    51    54   am
    56    43    34   am
    57    54    55    1
    58    25    26    1
    59    25    22    1
    60    38    37    1
    61    37    36    1
    62    36    33    1
    63    34    33    1
    64    34    35    2
    65    33    32    1
    66    55    56    1
    67    22    23    1
    68    22    21    1
    69    31    30    2
    70    23    24    2
    71    32    30   am
    72    56    57    2
    73    30    29    1
    74    29    28    1
