@<TRIPOS>MOLECULE
tmp/2hauB00.pdb
 105 101 0 0 0
SMALL
GASTEIGER

@<TRIPOS>ATOM
      1  N        -26.6400  -25.8950  -29.1640 N.3   382  ASP382     -0.1225
      2  CA       -27.5960  -25.8100  -30.2660 C.3   382  ASP382      0.1805
      3  C        -27.7890  -27.1850  -30.8980 C.2   382  ASP382      0.2598
      4  O        -27.0870  -28.1490  -30.5720 O.2   382  ASP382     -0.2718
      5  CB       -27.1450  -24.8130  -31.3300 C.3   382  ASP382      0.1424
      6  CG       -25.9120  -25.2650  -32.0780 C.2   382  ASP382      0.3668
      7  OD1      -25.3400  -24.4100  -32.7700 O.co2 382  ASP382     -0.2456
      8  OD2      -25.4970  -26.4430  -31.9930 O.co2 382  ASP382     -0.2456
      9  N        -28.7650  -27.2670  -31.7880 N.am  383  GLY383     -0.1957
     10  CA       -29.0510  -28.5130  -32.4680 C.3   383  GLY383      0.1869
     11  C        -27.7960  -29.2810  -32.8320 C.2   383  GLY383      0.2309
     12  O        -27.5540  -30.3870  -32.3360 O.2   383  GLY383     -0.2863
     13  N        -39.1830  -24.8020  -34.9100 N.3   416  TYR416     -0.1241
     14  CA       -39.9170  -24.3540  -36.0850 C.3   416  TYR416      0.1605
     15  C        -39.6610  -25.2660  -37.2820 C.2   416  TYR416      0.2264
     16  O        -38.7630  -26.0970  -37.2370 O.2   416  TYR416     -0.2867
     17  CB       -39.5420  -22.9010  -36.4250 C.3   416  TYR416      0.0534
     18  CG       -38.0950  -22.6490  -36.8260 C.ar  416  TYR416     -0.0201
     19  CD1      -37.1520  -22.1820  -35.9020 C.ar  416  TYR416     -0.0009
     20  CD2      -37.6740  -22.8600  -38.1370 C.ar  416  TYR416     -0.0009
     21  CE1      -35.8190  -21.9300  -36.2890 C.ar  416  TYR416      0.0417
     22  CE2      -36.3570  -22.6160  -38.5280 C.ar  416  TYR416      0.0417
     23  CZ       -35.4370  -22.1550  -37.6120 C.ar  416  TYR416      0.1957
     24  OH       -34.1460  -21.9420  -38.0450 O.3   416  TYR416     -0.2866
     25  N        -24.4290  -22.0240  -43.7450 N.3   445  GLY445     -0.1210
     26  CA       -24.2790  -22.5010  -42.3840 C.3   445  GLY445      0.1956
     27  C        -25.5780  -22.4420  -41.6250 C.2   445  GLY445      0.2612
     28  O        -25.7480  -23.1360  -40.6320 O.2   445  GLY445     -0.2717
     29  N        -26.4980  -21.6080  -42.0910 N.am  446  ARG446     -0.1965
     30  CA       -27.7900  -21.4780  -41.4460 C.3   446  ARG446      0.1729
     31  C        -28.5520  -22.8010  -41.4560 C.2   446  ARG446      0.2617
     32  O        -28.5130  -23.5580  -42.4310 O.2   446  ARG446     -0.2715
     33  CB       -28.5800  -20.3890  -42.1400 C.3   446  ARG446      0.0348
     34  CG       -28.2330  -19.0250  -41.6500 C.3   446  ARG446      0.0492
     35  CD       -28.9530  -18.7290  -40.3620 C.3   446  ARG446      0.2205
     36  NE       -29.5090  -17.3810  -40.3820 N.pl3 446  ARG446     -0.0865
     37  CZ       -30.4840  -16.9600  -39.5860 C.cat 446  ARG446      0.5346
     38  NH1      -31.0210  -17.7840  -38.6900 N.pl3 446  ARG446      0.1354
     39  NH2      -30.9320  -15.7140  -39.7050 N.pl3 446  ARG446      0.1354
     40  N        -29.2330  -23.0770  -40.3480 N.am  447  THR447     -0.1937
     41  CA       -29.9870  -24.3130  -40.1820 C.3   447  THR447      0.2028
     42  C        -31.1200  -24.4380  -41.1630 C.2   447  THR447      0.2642
     43  O        -31.3030  -25.4830  -41.7950 O.2   447  THR447     -0.2714
     44  CB       -30.6360  -24.4150  -38.7860 C.3   447  THR447      0.1808
     45  OG1      -29.6350  -24.3010  -37.7620 O.3   447  THR447     -0.2208
     46  CG2      -31.3750  -25.7490  -38.6570 C.3   447  THR447      0.0379
     47  N        -31.9100  -23.3750  -41.2510 N.am  448  ALA448     -0.1977
     48  CA       -33.0630  -23.3700  -42.1310 C.3   448  ALA448      0.1597
     49  C        -32.6740  -23.3790  -43.6040 C.2   448  ALA448      0.2287
     50  O        -33.0070  -24.3100  -44.3340 O.2   448  ALA448     -0.2864
     51  CB       -33.9390  -22.1700  -41.8230 C.3   448  ALA448      0.0319
     52  N        -34.4250  -14.9350  -43.9270 N.3   505  TYR505     -0.1241
     53  CA       -35.6110  -15.7030  -44.3230 C.3   505  TYR505      0.1605
     54  C        -36.3830  -15.0260  -45.4550 C.2   505  TYR505      0.2264
     55  O        -36.6160  -15.6240  -46.5090 O.2   505  TYR505     -0.2867
     56  CB       -36.5300  -15.9030  -43.1030 C.3   505  TYR505      0.0534
     57  CG       -36.0150  -16.9420  -42.1300 C.ar  505  TYR505     -0.0201
     58  CD1      -36.0190  -18.2960  -42.4590 C.ar  505  TYR505     -0.0009
     59  CD2      -35.4810  -16.5710  -40.9060 C.ar  505  TYR505     -0.0009
     60  CE1      -35.4990  -19.2520  -41.5920 C.ar  505  TYR505      0.0417
     61  CE2      -34.9590  -17.5200  -40.0340 C.ar  505  TYR505      0.0417
     62  CZ       -34.9700  -18.8560  -40.3860 C.ar  505  TYR505      0.1957
     63  OH       -34.4370  -19.8000  -39.5430 O.3   505  TYR505     -0.2866
     64  N        -38.3910  -21.0300  -43.5680 N.3   522  LYS522     -0.1245
     65  CA       -39.1640  -21.6610  -42.5120 C.3   522  LYS522      0.1561
     66  C        -40.6590  -21.5850  -42.7950 C.2   522  LYS522      0.2260
     67  O        -41.1050  -20.8550  -43.6820 O.2   522  LYS522     -0.2867
     68  CB       -38.8210  -21.0290  -41.1610 C.3   522  LYS522      0.0271
     69  CG       -39.0500  -19.5410  -41.0200 C.3   522  LYS522      0.0035
     70  CD       -38.4510  -19.0780  -39.6920 C.3   522  LYS522      0.0206
     71  CE       -38.9730  -17.7010  -39.2470 C.3   522  LYS522      0.1093
     72  NZ       -38.3520  -17.2010  -37.9710 N.3   522  LYS522     -0.1314
     73  N        -36.3970  -27.5220  -36.9230 N.3   570  ALA570     -0.1231
     74  CA       -35.2810  -26.8780  -36.2250 C.3   570  ALA570      0.1679
     75  C        -35.5120  -26.8960  -34.7240 C.2   570  ALA570      0.2434
     76  O        -36.3660  -26.1850  -34.2210 O.2   570  ALA570     -0.2733
     77  CB       -35.1210  -25.4310  -36.7040 C.3   570  ALA570      0.0304
     78  N        -34.7230  -27.6820  -33.9830 N.am  571  PRO571     -0.2729
     79  CA       -34.8330  -27.8070  -32.5320 C.3   571  PRO571      0.1401
     80  C        -34.3590  -26.5660  -31.8190 C.2   571  PRO571      0.2269
     81  O        -33.6950  -25.7250  -32.4190 O.2   571  PRO571     -0.2865
     82  CB       -33.9210  -28.9730  -32.2390 C.3   571  PRO571      0.0296
     83  CG       -32.7970  -28.6950  -33.1830 C.3   571  PRO571      0.0237
     84  CD       -33.5480  -28.4240  -34.4630 C.3   571  PRO571      0.0939
     85  N        -32.3250  -24.8330  -28.3880 N.3   573  HIS573     -0.1241
     86  CA       -31.1130  -25.1800  -27.6620 C.3   573  HIS573      0.1621
     87  C        -31.5240  -26.0730  -26.5080 C.2   573  HIS573      0.2264
     88  O        -32.6700  -26.0210  -26.0620 O.2   573  HIS573     -0.2867
     89  CB       -30.4010  -23.9120  -27.1760 C.3   573  HIS573      0.0745
     90  CG       -29.8940  -23.0540  -28.2930 C.ar  573  HIS573      0.0817
     91  ND1      -28.9280  -22.0860  -28.1180 N.ar  573  HIS573     -0.2268
     92  CD2      -30.2040  -23.0370  -29.6130 C.ar  573  HIS573      0.1154
     93  CE1      -28.6610  -21.5150  -29.2810 C.ar  573  HIS573      0.1986
     94  NE2      -29.4230  -22.0740  -30.2050 N.ar  573  HIS573     -0.2212
     95  N        -30.1090  -18.5600  -24.2070 N.3   620  ARG620     -0.1245
     96  CA       -30.5810  -17.5600  -25.1250 C.3   620  ARG620      0.1563
     97  C        -31.5560  -16.5950  -24.4240 C.2   620  ARG620      0.2260
     98  O        -32.4000  -17.0050  -23.6260 O.2   620  ARG620     -0.2867
     99  CB       -31.2270  -18.2480  -26.3080 C.3   620  ARG620      0.0307
    100  CG       -30.8960  -17.5880  -27.5890 C.3   620  ARG620      0.0489
    101  CD       -31.9970  -17.8340  -28.5590 C.3   620  ARG620      0.2205
    102  NE       -31.9330  -19.1540  -29.1640 N.pl3 620  ARG620     -0.0865
    103  CZ       -32.9030  -19.6600  -29.9120 C.cat 620  ARG620      0.5346
    104  NH1      -34.0070  -18.9500  -30.1270 N.pl3 620  ARG620      0.1354
    105  NH2      -32.7560  -20.8590  -30.4590 N.pl3 620  ARG620      0.1354
@<TRIPOS>BOND
     1    55    54    2
     2    54    53    1
     3    50    49    2
     4    53    52    1
     5    53    56    1
     6    25    26    1
     7    67    66    2
     8    49    48    1
     9    64    65    1
    10    56    57    1
    11    66    65    1
    12    65    68    1
    13    58    57   ar
    14    58    60   ar
    15    32    31    2
    16    26    27    1
    17    33    34    1
    18    33    30    1
    19    48    51    1
    20    48    47    1
    21    57    59   ar
    22    29    27   am
    23    29    30    1
    24    43    42    2
    25    34    35    1
    26    27    28    2
    27    60    62   ar
    28    31    30    1
    29    31    40   am
    30    47    42   am
    31    42    41    1
    32    68    69    1
    33    69    70    1
    34    59    61   ar
    35    62    61   ar
    36    62    63    1
    37    36    35    1
    38    36    37    2
    39    40    41    1
    40    41    44    1
    41    39    37    1
    42    70    71    1
    43    37    38    1
    44    71    72    1
    45    44    46    1
    46    44    45    1
    47    22    20   ar
    48    22    23   ar
    49    20    18   ar
    50    24    23    1
    51    23    21   ar
    52    15    16    2
    53    15    14    1
    54    73    74    1
    55    18    17    1
    56    18    19   ar
    57    77    74    1
    58    17    14    1
    59    21    19   ar
    60    74    75    1
    61    14    13    1
    62    75    76    2
    63    75    78   am
    64    84    78    1
    65    84    83    1
    66    78    79    1
    67    83    82    1
    68    11    10    1
    69    11    12    2
    70     7     6   ar
    71    79    82    1
    72    79    80    1
    73    10     9    1
    74    81    80    2
    75     6     8   ar
    76     6     5    1
    77     9     3   am
    78     5     2    1
    79     3     4    2
    80     3     2    1
    81   105   103    1
    82     2     1    1
    83    94    92   ar
    84    94    93   ar
    85   104   103    1
    86   103   102    2
    87    92    90   ar
    88    93    91   ar
    89   102   101    1
    90   101   100    1
    91    85    86    1
    92    90    91   ar
    93    90    89    1
    94    86    89    1
    95    86    87    1
    96   100    99    1
    97    87    88    2
    98    99    96    1
    99    96    97    1
   100    96    95    1
   101    97    98    2
