@<TRIPOS>MOLECULE
tmp/2hawB00.pdb
 135 127 0 0 0
SMALL
GASTEIGER

@<TRIPOS>ATOM
      1  N        -22.2190  -20.5210  151.5510 N.3     1  MET1       -0.1230
      2  CA       -21.2410  -20.7960  150.4420 C.3     1  MET1        0.1702
      3  C        -22.0710  -21.5320  149.4070 C.2     1  MET1        0.2592
      4  O        -22.5810  -22.6070  149.6860 O.2     1  MET1       -0.2718
      5  CB       -20.0920  -21.6570  150.9730 C.3     1  MET1        0.0401
      6  CG       -18.9960  -22.0320  149.9700 C.3     1  MET1        0.0596
      7  SD       -18.3570  -20.6860  149.0370 S.3     1  MET1       -0.1393
      8  CE       -17.4410  -19.8380  150.3480 C.3     1  MET1        0.0692
      9  N        -22.2750  -20.9040  148.2540 N.am    2  GLU2       -0.1979
     10  CA       -23.1350  -21.4700  147.2140 C.3     2  GLU2        0.1602
     11  C        -22.7050  -22.8760  146.7710 C.2     2  GLU2        0.2287
     12  O        -21.5290  -23.1250  146.4820 O.2     2  GLU2       -0.2864
     13  CB       -23.1060  -20.5590  146.0130 C.3     2  GLU2        0.0415
     14  CG       -23.9100  -21.0740  144.8740 C.3     2  GLU2        0.1163
     15  CD       -24.1560  -20.0170  143.8170 C.2     2  GLU2        0.3649
     16  OE1      -24.8150  -20.3290  142.8160 O.co2   2  GLU2       -0.2457
     17  OE2      -23.6890  -18.8680  143.9980 O.co2   2  GLU2       -0.2457
     18  N        -22.3040  -26.1940  144.4610 N.3     4  ILE4       -0.1245
     19  CA       -22.2230  -26.5640  143.0010 C.3     4  ILE4        0.1561
     20  C        -22.1930  -28.0700  142.8800 C.2     4  ILE4        0.2260
     21  O        -21.7960  -28.7470  143.8220 O.2     4  ILE4       -0.2867
     22  CB       -20.9580  -25.9670  142.3300 C.3     4  ILE4        0.0252
     23  CG1      -19.7340  -26.5120  142.9920 C.3     4  ILE4        0.0019
     24  CG2      -20.9960  -24.4110  142.4400 C.3     4  ILE4        0.0019
     25  CD1      -18.4080  -26.1350  142.2120 C.3     4  ILE4        0.0001
     26  N        -12.2460  -33.7320  142.1460 N.3    23  TYR23      -0.1241
     27  CA       -12.2690  -32.2780  142.0650 C.3    23  TYR23       0.1605
     28  C        -13.2220  -31.7450  143.1630 C.2    23  TYR23       0.2264
     29  O        -12.9820  -30.6930  143.6920 O.2    23  TYR23      -0.2867
     30  CB       -12.7370  -31.7930  140.6760 C.3    23  TYR23       0.0534
     31  CG       -12.3640  -30.3010  140.3750 C.ar   23  TYR23      -0.0201
     32  CD1      -11.3720  -29.6390  141.1250 C.ar   23  TYR23      -0.0009
     33  CD2      -12.9870  -29.5930  139.3590 C.ar   23  TYR23      -0.0009
     34  CE1      -11.0580  -28.2660  140.8830 C.ar   23  TYR23       0.0417
     35  CE2      -12.6680  -28.2660  139.0930 C.ar   23  TYR23       0.0417
     36  CZ       -11.6930  -27.6100  139.8500 C.ar   23  TYR23       0.1957
     37  OH       -11.3490  -26.2960  139.6130 O.3    23  TYR23      -0.2866
     38  N        -11.0760  -31.4760  146.1510 N.3    26  LEU26      -0.1231
     39  CA       -10.1420  -30.3340  146.1230 C.3    26  LEU26       0.1693
     40  C        -10.8980  -29.0270  146.4440 C.2    26  LEU26       0.2591
     41  O        -10.4510  -28.1900  147.2490 O.2    26  LEU26      -0.2718
     42  CB        -9.5310  -30.2640  144.7220 C.3    26  LEU26       0.0284
     43  CG        -8.6000  -29.0410  144.4640 C.3    26  LEU26       0.0019
     44  CD1       -7.5460  -28.9420  145.5660 C.3    26  LEU26       0.0001
     45  CD2       -7.8980  -29.1860  143.0600 C.3    26  LEU26       0.0001
     46  N        -12.0900  -28.8750  145.8630 N.am   27  LYS27      -0.1980
     47  CA       -12.9110  -27.6720  146.1910 C.3    27  LYS27       0.1596
     48  C        -13.2830  -27.5720  147.6730 C.2    27  LYS27       0.2287
     49  O        -13.1650  -26.5030  148.2830 O.2    27  LYS27      -0.2864
     50  CB       -14.2030  -27.6150  145.3260 C.3    27  LYS27       0.0298
     51  CG       -13.9400  -27.4340  143.8010 C.3    27  LYS27       0.0038
     52  CD       -13.2650  -26.0860  143.5210 C.3    27  LYS27       0.0206
     53  CE       -13.5930  -25.5970  142.0850 C.3    27  LYS27       0.1093
     54  NZ       -12.7380  -24.3480  141.7170 N.3    27  LYS27      -0.1314
     55  N        -10.5220  -26.6860  149.9860 N.3    30  LEU30      -0.1245
     56  CA       -10.2260  -25.2530  149.9250 C.3    30  LEU30       0.1561
     57  C        -11.3130  -24.3510  150.5240 C.2    30  LEU30       0.2260
     58  O        -11.1640  -23.1320  150.4820 O.2    30  LEU30      -0.2867
     59  CB        -9.9810  -24.8530  148.4860 C.3    30  LEU30       0.0270
     60  CG        -8.6750  -25.4840  147.9120 C.3    30  LEU30       0.0019
     61  CD1       -8.6030  -25.3170  146.4430 C.3    30  LEU30       0.0001
     62  CD2       -7.4150  -24.7940  148.5410 C.3    30  LEU30       0.0001
     63  N        -14.7460  -24.4820  149.7630 N.3    32  PHE32      -0.1241
     64  CA       -15.9580  -24.2890  148.9560 C.3    32  PHE32       0.1605
     65  C        -16.9880  -25.3920  149.2460 C.2    32  PHE32       0.2264
     66  O        -16.9970  -25.9710  150.3230 O.2    32  PHE32      -0.2867
     67  CB       -15.5710  -24.1570  147.4690 C.3    32  PHE32       0.0534
     68  CG       -14.6330  -22.9860  147.2510 C.ar   32  PHE32      -0.0203
     69  CD1      -13.2410  -23.1940  147.2250 C.ar   32  PHE32      -0.0042
     70  CD2      -15.1260  -21.6930  147.2380 C.ar   32  PHE32      -0.0042
     71  CE1      -12.3510  -22.1190  147.1310 C.ar   32  PHE32      -0.0003
     72  CE2      -14.2340  -20.5950  147.1540 C.ar   32  PHE32      -0.0003
     73  CZ       -12.8480  -20.8150  147.0970 C.ar   32  PHE32      -0.0000
     74  N        -19.8260  -27.7230  137.4760 N.3    72  ILE72      -0.1245
     75  CA       -18.5120  -27.9020  136.8430 C.3    72  ILE72       0.1561
     76  C        -18.5080  -29.2160  136.0840 C.2    72  ILE72       0.2260
     77  O        -18.9610  -30.2450  136.6130 O.2    72  ILE72      -0.2867
     78  CB       -17.3820  -27.9120  137.9080 C.3    72  ILE72       0.0252
     79  CG1      -17.2860  -26.4930  138.4860 C.3    72  ILE72       0.0019
     80  CG2      -16.0090  -28.4820  137.3300 C.3    72  ILE72       0.0019
     81  CD1      -16.2000  -26.3280  139.6220 C.3    72  ILE72       0.0001
     82  N        -19.5860  -23.2060  135.2320 N.3    92  LEU92      -0.1231
     83  CA       -18.5680  -22.3410  135.8470 C.3    92  LEU92       0.1693
     84  C        -17.1940  -22.7320  135.4320 C.2    92  LEU92       0.2591
     85  O        -16.3060  -21.8730  135.3620 O.2    92  LEU92      -0.2718
     86  CB       -18.6350  -22.5380  137.3740 C.3    92  LEU92       0.0284
     87  CG       -19.9730  -22.0460  137.9510 C.3    92  LEU92       0.0019
     88  CD1      -19.9360  -22.4790  139.4340 C.3    92  LEU92       0.0001
     89  CD2      -20.1410  -20.5340  137.8160 C.3    92  LEU92       0.0001
     90  N        -16.9540  -24.0330  135.2530 N.am   93  GLU93      -0.1979
     91  CA       -15.6040  -24.5280  134.8690 C.3    93  GLU93       0.1602
     92  C        -15.7380  -25.8110  134.0990 C.2    93  GLU93       0.2287
     93  O        -16.7530  -26.5630  134.2420 O.2    93  GLU93      -0.2864
     94  CB       -14.7110  -24.9050  136.0830 C.3    93  GLU93       0.0415
     95  CG       -14.6480  -23.8000  137.1730 C.3    93  GLU93       0.1163
     96  CD       -13.7230  -24.1790  138.3070 C.2    93  GLU93       0.3649
     97  OE1      -12.9390  -25.1240  138.0880 O.co2  93  GLU93      -0.2457
     98  OE2      -13.7700  -23.5170  139.3740 O.co2  93  GLU93      -0.2457
     99  N        -13.5460  -20.6370  133.6970 N.3   110  TYR110     -0.1241
    100  CA       -12.2600  -21.3490  133.7860 C.3   110  TYR110      0.1605
    101  C        -12.4080  -22.6250  132.9710 C.2   110  TYR110      0.2264
    102  O        -13.1380  -23.5520  133.3440 O.2   110  TYR110     -0.2867
    103  CB       -12.0110  -21.6830  135.2590 C.3   110  TYR110      0.0534
    104  CG       -10.6330  -22.2610  135.5230 C.ar  110  TYR110     -0.0201
    105  CD1       -9.5400  -21.3950  135.7370 C.ar  110  TYR110     -0.0009
    106  CD2      -10.4440  -23.6380  135.6640 C.ar  110  TYR110     -0.0009
    107  CE1       -8.2640  -21.9370  136.0490 C.ar  110  TYR110      0.0417
    108  CE2       -9.1890  -24.1850  135.9490 C.ar  110  TYR110      0.0417
    109  CZ        -8.1240  -23.3330  136.1580 C.ar  110  TYR110      0.1957
    110  OH        -6.8650  -23.8510  136.4480 O.3   110  TYR110     -0.2866
    111  N         -3.5020  -29.7300  139.6640 N.3   126  MET126     -0.1245
    112  CA        -4.2760  -28.7150  140.3890 C.3   126  MET126      0.1570
    113  C         -4.2010  -28.9040  141.9160 C.2   126  MET126      0.2261
    114  O         -4.1920  -27.9180  142.6440 O.2   126  MET126     -0.2867
    115  CB        -5.7390  -28.7580  139.9130 C.3   126  MET126      0.0387
    116  CG        -5.7770  -28.2570  138.4520 C.3   126  MET126      0.0595
    117  SD        -7.4360  -28.5000  137.7060 S.3   126  MET126     -0.1393
    118  CE        -8.3080  -27.2790  138.5720 C.3   126  MET126      0.0692
    119  N         -0.8930  -27.2990  142.6950 N.3   129  GLU129     -0.1231
    120  CA        -0.9580  -25.8140  142.4860 C.3   129  GLU129      0.1699
    121  C         -1.6050  -25.1380  143.6910 C.2   129  GLU129      0.2592
    122  O         -1.2400  -23.9780  144.0170 O.2   129  GLU129     -0.2718
    123  CB        -1.7700  -25.4770  141.2170 C.3   129  GLU129      0.0402
    124  CG        -0.9640  -25.7890  139.9550 C.3   129  GLU129      0.1161
    125  CD        -1.8090  -25.8100  138.6780 C.2   129  GLU129      0.3649
    126  OE1       -3.0460  -25.6330  138.7800 O.co2 129  GLU129     -0.2457
    127  OE2       -1.2040  -26.0590  137.5890 O.co2 129  GLU129     -0.2457
    128  N         -2.5640  -25.8260  144.3350 N.am  130  ASN130     -0.1974
    129  CA        -3.3230  -25.2650  145.4310 C.3   130  ASN130      0.1688
    130  C         -2.8530  -25.7120  146.8130 C.2   130  ASN130      0.2292
    131  O         -3.5040  -25.4060  147.7930 O.2   130  ASN130     -0.2864
    132  CB        -4.8260  -25.6030  145.2130 C.3   130  ASN130      0.1181
    133  CG        -5.3870  -24.8500  144.0150 C.2   130  ASN130      0.2629
    134  OD1       -5.4290  -25.3520  142.8550 O.2   130  ASN130     -0.2716
    135  ND2       -5.7470  -23.6040  144.2630 N.am  130  ASN130     -0.0877
@<TRIPOS>BOND
     1   101   102    2
     2   101   100    1
     3    99   100    1
     4   100   103    1
     5    92    93    2
     6    92    91    1
     7    91    90    1
     8    91    94    1
     9    82    83    1
    10    90    84   am
    11   103   104    1
    12    85    84    2
    13    84    83    1
    14   104   106   ar
    15   104   105   ar
    16   106   108   ar
    17   105   107   ar
    18    83    86    1
    19   108   109   ar
    20   107   109   ar
    21    94    95    1
    22    76    77    2
    23    76    75    1
    24   109   110    1
    25    75    74    1
    26    75    78    1
    27    95    96    1
    28    80    78    1
    29    86    87    1
    30   127   125   ar
    31   117   116    1
    32   117   118    1
    33    89    87    1
    34    78    79    1
    35    87    88    1
    36    97    96   ar
    37    96    98   ar
    38   116   115    1
    39    79    81    1
    40   125   126   ar
    41   125   124    1
    42    35    33   ar
    43    35    36   ar
    44    33    31   ar
    45    37    36    1
    46   111   112    1
    47    36    34   ar
    48   115   112    1
    49   124   123    1
    50    31    30    1
    51    31    32   ar
    52   112   113    1
    53    30    27    1
    54    34    32   ar
    55   123   120    1
    56    54    53    1
    57   113   114    2
    58    27    26    1
    59    27    28    1
    60    53    52    1
    61    25    23    1
    62    22    24    1
    63    22    23    1
    64    22    19    1
    65   120   119    1
    66   120   121    1
    67    16    15   ar
    68   134   133    2
    69    20    19    1
    70    20    21    2
    71    19    18    1
    72    45    43    1
    73    28    29    2
    74    52    51    1
    75   121   122    2
    76   121   128   am
    77    51    50    1
    78    15    17   ar
    79    15    14    1
    80   133   135   am
    81   133   132    1
    82   128   129    1
    83    43    42    1
    84    43    44    1
    85    42    39    1
    86    14    13    1
    87   132   129    1
    88    50    47    1
    89   129   130    1
    90    46    47    1
    91    46    40   am
    92    13    10    1
    93    39    38    1
    94    39    40    1
    95    47    48    1
    96    61    60    1
    97    40    41    2
    98    12    11    2
    99    11    10    1
   100   130   131    2
   101    73    71   ar
   102    73    72   ar
   103    71    69   ar
   104    72    70   ar
   105    10     9    1
   106    69    68   ar
   107    70    68   ar
   108    68    67    1
   109    67    64    1
   110    48    49    2
   111    60    59    1
   112    60    62    1
   113     9     3   am
   114    59    56    1
   115    64    65    1
   116    64    63    1
   117     7     6    1
   118     7     8    1
   119    65    66    2
   120     3     4    2
   121     3     2    1
   122    56    55    1
   123    56    57    1
   124     6     5    1
   125     2     5    1
   126     2     1    1
   127    58    57    2
