@<TRIPOS>MOLECULE
tmp/2hayD01.pdb
 73 70 0 0 0
SMALL
GASTEIGER

@<TRIPOS>ATOM
      1  N         62.7310   50.6810  109.5980 N.3    41  LEU41      -0.1231
      2  CA        63.1440   51.9800  109.0480 C.3    41  LEU41       0.1693
      3  C         62.0040   53.0170  109.0520 C.2    41  LEU41       0.2593
      4  O         62.1840   54.1230  108.5720 O.2    41  LEU41      -0.2718
      5  CB        63.7220   51.8310  107.6260 C.3    41  LEU41       0.0284
      6  CG        64.9700   50.9870  107.3710 C.3    41  LEU41       0.0019
      7  CD1       65.2160   50.7860  105.8920 C.3    41  LEU41       0.0001
      8  CD2       66.2490   51.5790  107.9640 C.3    41  LEU41       0.0001
      9  N         60.8350   52.6580  109.5720 N.am   42  SER42      -0.1939
     10  CA        59.7480   53.6140  109.7450 C.3    42  SER42       0.2040
     11  C         60.1630   54.7830  110.6780 C.2    42  SER42       0.2485
     12  O         61.0140   54.6090  111.5750 O.2    42  SER42      -0.2729
     13  CB        58.5210   52.9210  110.3390 C.3    42  SER42       0.2129
     14  OG        57.9190   52.0640  109.3940 O.3    42  SER42      -0.2179
     15  N         59.5920   55.9880  110.4460 N.am   43  PRO43      -0.2715
     16  CA        59.8550   57.0970  111.3570 C.3    43  PRO43       0.1536
     17  C         58.9860   56.9850  112.6130 C.2    43  PRO43       0.2599
     18  O         57.8760   56.4510  112.5700 O.2    43  PRO43      -0.2715
     19  CB        59.4630   58.3160  110.5290 C.3    43  PRO43       0.0310
     20  CG        58.4010   57.8120  109.5980 C.3    43  PRO43       0.0237
     21  CD        58.7280   56.3820  109.3130 C.3    43  PRO43       0.0939
     22  N         59.4920   57.4510  113.7440 N.am   44  SER44      -0.1936
     23  CA        58.6680   57.4660  114.9420 C.3    44  SER44       0.2055
     24  C         58.8940   58.8180  115.6060 C.2    44  SER44       0.2644
     25  O         59.9680   59.4100  115.4430 O.2    44  SER44      -0.2714
     26  CB        59.0330   56.3070  115.8860 C.3    44  SER44       0.2130
     27  OG        60.4120   56.3560  116.2720 O.3    44  SER44      -0.2179
     28  N         57.8990   59.2980  116.3550 N.am   45  SER45      -0.1935
     29  CA        58.0010   60.6090  117.0190 C.3    45  SER45       0.2055
     30  C         59.2630   60.6520  117.8450 C.2    45  SER45       0.2643
     31  O         59.5330   59.7110  118.6060 O.2    45  SER45      -0.2714
     32  CB        56.7790   60.8770  117.8760 C.3    45  SER45       0.2130
     33  OG        56.7740   62.1860  118.4070 O.3    45  SER45      -0.2179
     34  N         60.0250   61.7400  117.6500 N.am   46  ILE46      -0.1963
     35  CA        61.3440   62.0370  118.2750 C.3    46  ILE46       0.1727
     36  C         62.3950   60.9270  118.1600 C.2    46  ILE46       0.2616
     37  O         63.3450   60.8680  118.9490 O.2    46  ILE46      -0.2715
     38  CB        61.2160   62.5770  119.7540 C.3    46  ILE46       0.0290
     39  CG1       60.8590   61.4730  120.7460 C.3    46  ILE46       0.0022
     40  CG2       60.1960   63.7280  119.8200 C.3    46  ILE46       0.0023
     41  CD1       60.4710   62.0120  122.1420 C.3    46  ILE46       0.0001
     42  N         62.2210   60.0560  117.1610 N.am   47  GLY47      -0.1955
     43  CA        63.1470   58.9540  116.8840 C.3    47  GLY47       0.1869
     44  C         63.2690   57.9720  118.0430 C.2    47  GLY47       0.2309
     45  O         64.3270   57.3540  118.2430 O.2    47  GLY47      -0.2863
     46  N         71.4730   59.2940  118.4180 N.3   105  ARG105     -0.1245
     47  CA        71.5550   60.3520  117.4310 C.3   105  ARG105      0.1563
     48  C         72.8150   61.1790  117.6420 C.2   105  ARG105      0.2260
     49  O         73.0780   62.1220  116.9000 O.2   105  ARG105     -0.2867
     50  CB        70.3170   61.2530  117.5130 C.3   105  ARG105      0.0307
     51  CG        69.2150   60.9190  116.5140 C.3   105  ARG105      0.0489
     52  CD        67.9430   60.4060  117.1460 C.3   105  ARG105      0.2205
     53  NE        67.2990   61.3590  118.0620 N.pl3 105  ARG105     -0.0865
     54  CZ        66.6860   62.4920  117.7040 C.cat 105  ARG105      0.5346
     55  NH1       66.1300   63.2600  118.6310 N.pl3 105  ARG105      0.1354
     56  NH2       66.6280   62.8720  116.4310 N.pl3 105  ARG105      0.1354
     57  N         52.7780   55.2530  117.0840 N.3   142  GLN142     -0.1245
     58  CA        53.9040   55.1650  116.1940 C.3   142  GLN142      0.1566
     59  C         53.8780   53.8370  115.4420 C.2   142  GLN142      0.2260
     60  O         54.1320   53.8170  114.2560 O.2   142  GLN142     -0.2867
     61  CB        55.2270   55.3740  116.9240 C.3   142  GLN142      0.0367
     62  CG        55.2540   56.5920  117.8980 C.3   142  GLN142      0.0905
     63  CD        54.8250   57.8960  117.2610 C.2   142  GLN142      0.2608
     64  OE1       55.3800   58.3030  116.2290 O.2   142  GLN142     -0.2717
     65  NE2       53.8210   58.5560  117.8590 N.am  142  GLN142     -0.0878
     66  N         52.2380   53.5770  112.0120 N.3   145  ILE145     -0.1245
     67  CA        53.0270   54.0360  110.8670 C.3   145  ILE145      0.1561
     68  C         53.7160   52.8370  110.2780 C.2   145  ILE145      0.2260
     69  O         53.7080   52.6430  109.0490 O.2   145  ILE145     -0.2867
     70  CB        54.1100   55.1110  111.2460 C.3   145  ILE145      0.0252
     71  CG1       53.4690   56.2700  112.0280 C.3   145  ILE145      0.0019
     72  CG2       54.8760   55.5750  109.9850 C.3   145  ILE145      0.0019
     73  CD1       54.4240   57.2720  112.5230 C.3   145  ILE145      0.0001
@<TRIPOS>BOND
     1     7     6    1
     2     6     5    1
     3     6     8    1
     4     5     2    1
     5     4     3    2
     6     2     3    1
     7     2     1    1
     8    69    68    2
     9     3     9   am
    10    21    20    1
    11    21    15    1
    12    14    13    1
    13     9    10    1
    14    20    19    1
    15    10    13    1
    16    10    11    1
    17    72    70    1
    18    68    67    1
    19    15    11   am
    20    15    16    1
    21    19    16    1
    22    11    12    2
    23    67    70    1
    24    67    66    1
    25    70    71    1
    26    16    17    1
    27    71    73    1
    28    18    17    2
    29    17    22   am
    30    22    23    1
    31    60    59    2
    32    23    24    1
    33    23    26    1
    34    59    58    1
    35    25    24    2
    36    24    28   am
    37    26    27    1
    38    58    61    1
    39    58    57    1
    40    64    63    2
    41    28    29    1
    42    56    54    1
    43    51    52    1
    44    51    50    1
    45    43    42    1
    46    43    44    1
    47    49    48    2
    48    61    62    1
    49    29    30    1
    50    29    32    1
    51    52    53    1
    52    42    36   am
    53    63    65   am
    54    63    62    1
    55    47    50    1
    56    47    48    1
    57    47    46    1
    58    34    30   am
    59    34    35    1
    60    54    53    2
    61    54    55    1
    62    30    31    2
    63    32    33    1
    64    44    45    2
    65    36    35    1
    66    36    37    2
    67    35    38    1
    68    38    40    1
    69    38    39    1
    70    39    41    1
