@<TRIPOS>MOLECULE
tmp/2hayD00.pdb
 158 153 0 0 0
SMALL
GASTEIGER

@<TRIPOS>ATOM
      1  N         45.3440   45.7170   98.0130 N.3    16  ARG16      -0.1231
      2  CA        45.3120   45.5060   99.4550 C.3    16  ARG16       0.1694
      3  C         43.8830   45.4840   99.9860 C.2    16  ARG16       0.2593
      4  O         43.1290   46.4260   99.7900 O.2    16  ARG16      -0.2718
      5  CB        46.0980   46.5710  100.2110 C.3    16  ARG16       0.0321
      6  CG        46.3540   46.1690  101.6840 C.3    16  ARG16       0.0489
      7  CD        46.2320   47.3470  102.6650 C.3    16  ARG16       0.2205
      8  NE        45.0080   48.1090  102.4560 N.pl3  16  ARG16      -0.0865
      9  CZ        43.8070   47.7920  102.9450 C.cat  16  ARG16       0.5346
     10  NH1       43.6400   46.7000  103.6940 N.pl3  16  ARG16       0.1354
     11  NH2       42.7630   48.5700  102.6680 N.pl3  16  ARG16       0.1354
     12  N         43.5400   44.3990  100.6610 N.am   17  THR17      -0.1939
     13  CA        42.2420   44.2310  101.2930 C.3    17  THR17       0.2028
     14  C         42.5310   43.4740  102.5840 C.2    17  THR17       0.2642
     15  O         43.5900   42.8300  102.6990 O.2    17  THR17      -0.2714
     16  CB        41.2600   43.4880  100.3320 C.3    17  THR17       0.1808
     17  OG1       39.9200   43.5260  100.8460 O.3    17  THR17      -0.2208
     18  CG2       41.6780   42.0460  100.0700 C.3    17  THR17       0.0379
     19  N         41.6280   43.5750  103.5550 N.am   18  ALA18      -0.1977
     20  CA        41.7780   42.8280  104.8100 C.3    18  ALA18       0.1597
     21  C         41.4390   41.3630  104.5530 C.2    18  ALA18       0.2287
     22  O         40.2750   41.0040  104.4060 O.2    18  ALA18      -0.2864
     23  CB        40.8920   43.4010  105.9080 C.3    18  ALA18       0.0319
     24  N         41.1590   37.4280  105.4480 N.3    20  ARG20      -0.1245
     25  CA        41.0140   36.5360  106.6080 C.3    20  ARG20       0.1563
     26  C         41.5800   35.1420  106.3560 C.2    20  ARG20       0.2260
     27  O         42.2400   34.5800  107.2310 O.2    20  ARG20      -0.2867
     28  CB        39.5670   36.5000  107.1490 C.3    20  ARG20       0.0307
     29  CG        38.4410   36.5170  106.1000 C.3    20  ARG20       0.0489
     30  CD        37.2530   37.4040  106.5420 C.3    20  ARG20       0.2205
     31  NE        36.1790   37.5220  105.5350 N.pl3  20  ARG20      -0.0865
     32  CZ        36.1820   38.3360  104.4710 C.cat  20  ARG20       0.5346
     33  NH1       37.2190   39.1280  104.2100 N.pl3  20  ARG20       0.1354
     34  NH2       35.1390   38.3460  103.6440 N.pl3  20  ARG20       0.1354
     35  N         38.6890   37.3620  118.6100 N.3    70  TRP70      -0.1227
     36  CA        37.5200   37.2660  117.7290 C.3    70  TRP70       0.1737
     37  C         37.7770   37.7080  116.2900 C.2    70  TRP70       0.2596
     38  O         37.1430   37.1940  115.3800 O.2    70  TRP70      -0.2718
     39  CB        36.3210   38.0400  118.3090 C.3    70  TRP70       0.0564
     40  CG        36.5270   39.5520  118.4890 C.ar   70  TRP70       0.0003
     41  CD1       36.9020   40.1960  119.6320 C.ar   70  TRP70       0.0946
     42  CD2       36.3250   40.5790  117.5060 C.ar   70  TRP70       0.0152
     43  NE1       36.9720   41.5550  119.4210 N.ar   70  TRP70      -0.2442
     44  CE2       36.6220   41.8190  118.1260 C.ar   70  TRP70       0.0810
     45  CE3       35.9550   40.5730  116.1540 C.ar   70  TRP70       0.0012
     46  CZ2       36.5490   43.0400  117.4410 C.ar   70  TRP70       0.0191
     47  CZ3       35.8870   41.7840  115.4730 C.ar   70  TRP70       0.0001
     48  CH2       36.1840   43.0040  116.1200 C.ar   70  TRP70       0.0015
     49  N         38.6940   38.6680  116.0990 N.am   71  GLY71      -0.1957
     50  CA        39.0380   39.2100  114.7820 C.3    71  GLY71       0.1869
     51  C         40.1490   38.4870  114.0440 C.2    71  GLY71       0.2309
     52  O         40.5090   38.8750  112.9410 O.2    71  GLY71      -0.2863
     53  N         42.8900   34.0050  110.4160 N.3    75  GLN75      -0.1245
     54  CA        44.2090   34.5140  110.1350 C.3    75  GLN75       0.1566
     55  C         45.2400   33.7200  110.9110 C.2    75  GLN75       0.2260
     56  O         46.2450   33.3140  110.3470 O.2    75  GLN75      -0.2867
     57  CB        44.2910   36.0000  110.4880 C.3    75  GLN75       0.0367
     58  CG        43.3880   36.8600  109.6430 C.3    75  GLN75       0.0905
     59  CD        42.0460   37.1380  110.2900 C.2    75  GLN75       0.2608
     60  OE1       41.4540   36.2800  110.9530 O.2    75  GLN75      -0.2717
     61  NE2       41.5510   38.3430  110.0870 N.am   75  GLN75      -0.0878
     62  N         51.5650   52.1430  114.2650 N.3   144  TYR144     -0.1241
     63  CA        50.6040   52.1840  113.1600 C.3   144  TYR144      0.1605
     64  C         51.2340   52.7300  111.8670 C.2   144  TYR144      0.2264
     65  O         50.8280   52.3630  110.7590 O.2   144  TYR144     -0.2867
     66  CB        49.3540   52.9720  113.5510 C.3   144  TYR144      0.0534
     67  CG        48.4310   52.1860  114.4570 C.ar  144  TYR144     -0.0201
     68  CD1       48.7040   52.0730  115.8260 C.ar  144  TYR144     -0.0009
     69  CD2       47.3020   51.5230  113.9480 C.ar  144  TYR144     -0.0009
     70  CE1       47.8710   51.3400  116.6670 C.ar  144  TYR144      0.0417
     71  CE2       46.4440   50.7930  114.8000 C.ar  144  TYR144      0.0417
     72  CZ        46.7520   50.7120  116.1540 C.ar  144  TYR144      0.1957
     73  OH        45.9660   50.0040  117.0170 O.3   144  TYR144     -0.2866
     74  N         52.8740   49.7520  110.6890 N.3   147  LEU147     -0.1245
     75  CA        51.8400   48.8620  110.2070 C.3   147  LEU147      0.1561
     76  C         51.4820   49.2490  108.7760 C.2   147  LEU147      0.2260
     77  O         51.3530   48.3830  107.9110 O.2   147  LEU147     -0.2867
     78  CB        50.5970   48.9300  111.1180 C.3   147  LEU147      0.0270
     79  CG        49.3950   48.0300  110.8230 C.3   147  LEU147      0.0019
     80  CD1       49.6870   46.5250  111.0870 C.3   147  LEU147      0.0001
     81  CD2       48.1690   48.5140  111.6400 C.3   147  LEU147      0.0001
     82  N         46.2920   41.4380  106.8550 N.3   159  CYS159     -0.1221
     83  CA        45.1640   41.8980  107.6280 C.3   159  CYS159      0.1794
     84  C         45.7000   42.5640  108.9180 C.2   159  CYS159      0.2443
     85  O         46.3460   41.9010  109.7310 O.2   159  CYS159     -0.2733
     86  CB        44.2370   40.7310  108.0100 C.3   159  CYS159      0.0970
     87  SG        42.6230   41.3060  108.5840 S.3   159  CYS159     -0.0800
     88  N         45.4260   43.8740  109.1040 N.am  160  PRO160     -0.2718
     89  CA        45.7400   44.5290  110.3850 C.3   160  PRO160      0.1535
     90  C         44.6990   44.1060  111.4290 C.2   160  PRO160      0.2598
     91  O         43.5320   43.9550  111.0870 O.2   160  PRO160     -0.2715
     92  CB        45.6240   46.0220  110.0550 C.3   160  PRO160      0.0310
     93  CG        44.5920   46.0860  108.9440 C.3   160  PRO160      0.0237
     94  CD        44.8100   44.8010  108.1290 C.3   160  PRO160      0.0939
     95  N         45.1220   43.8250  112.6560 N.am  161  ILE161     -0.1964
     96  CA        44.2350   43.1990  113.6310 C.3   161  ILE161      0.1727
     97  C         44.3250   43.9160  114.9970 C.2   161  ILE161      0.2616
     98  O         45.4350   44.0990  115.5480 O.2   161  ILE161     -0.2715
     99  CB        44.5430   41.6760  113.7580 C.3   161  ILE161      0.0290
    100  CG1       44.2580   40.9360  112.4250 C.3   161  ILE161      0.0022
    101  CG2       43.7100   41.0160  114.8730 C.3   161  ILE161      0.0023
    102  CD1       45.0270   39.6490  112.2640 C.3   161  ILE161      0.0001
    103  N         43.1570   44.3200  115.5020 N.am  162  GLU162     -0.1963
    104  CA        42.9580   44.8230  116.8750 C.3   162  GLU162      0.1733
    105  C         41.8700   44.0020  117.6080 C.2   162  GLU162      0.2616
    106  O         41.5900   44.2430  118.7650 O.2   162  GLU162     -0.2715
    107  CB        42.4870   46.2890  116.8740 C.3   162  GLU162      0.0429
    108  CG        43.4980   47.3510  116.4550 C.3   162  GLU162      0.1163
    109  CD        42.8190   48.7310  116.4310 C.2   162  GLU162      0.3649
    110  OE1       41.5580   48.7980  116.5140 O.co2 162  GLU162     -0.2457
    111  OE2       43.5360   49.7490  116.3400 O.co2 162  GLU162     -0.2457
    112  N         41.2560   43.0600  116.9060 N.am  163  GLY163     -0.1955
    113  CA        40.0870   42.3310  117.3930 C.3   163  GLY163      0.1869
    114  C         40.4320   41.2170  118.3420 C.2   163  GLY163      0.2309
    115  O         40.1640   40.0480  118.0630 O.2   163  GLY163     -0.2863
    116  N         49.1020   45.8920  118.3060 N.3   188  SER188     -0.1217
    117  CA        48.2230   45.2070  117.3320 C.3   188  SER188      0.1889
    118  C         48.9080   43.9920  116.7510 C.2   188  SER188      0.2288
    119  O         50.0470   43.6530  117.1230 O.2   188  SER188     -0.2866
    120  CB        47.7890   46.1540  116.1660 C.3   188  SER188      0.2089
    121  OG        48.8890   46.5300  115.3420 O.3   188  SER188     -0.2183
    122  N         32.7750   41.0940   96.9300 N.3   200  HIS200     -0.1241
    123  CA        32.4540   42.4260   97.4660 C.3   200  HIS200      0.1621
    124  C         33.6380   43.3850   97.2840 C.2   200  HIS200      0.2264
    125  O         34.7680   43.1060   97.7070 O.2   200  HIS200     -0.2867
    126  CB        31.9690   42.3130   98.9350 C.3   200  HIS200      0.0745
    127  CG        32.6220   43.2690   99.8930 C.ar  200  HIS200      0.0817
    128  ND1       32.0660   44.4840  100.2340 N.ar  200  HIS200     -0.2268
    129  CD2       33.7700   43.1690  100.6100 C.ar  200  HIS200      0.1154
    130  CE1       32.8500   45.0990  101.1050 C.ar  200  HIS200      0.1986
    131  NE2       33.8930   44.3240  101.3470 N.ar  200  HIS200     -0.2212
    132  N         35.9130   46.9730   97.4760 N.3   202  GLN202     -0.1231
    133  CA        36.4080   47.9020   98.4900 C.3   202  GLN202      0.1698
    134  C         35.3710   49.0230   98.7200 C.2   202  GLN202      0.2592
    135  O         34.9650   49.6900   97.7650 O.2   202  GLN202     -0.2718
    136  CB        37.7040   48.4820   97.9300 C.3   202  GLN202      0.0381
    137  CG        38.6490   49.2290   98.8530 C.3   202  GLN202      0.0905
    138  CD        39.9730   49.5450   98.1280 C.2   202  GLN202      0.2608
    139  OE1       41.0660   49.2410   98.6260 O.2   202  GLN202     -0.2717
    140  NE2       39.8690   50.1220   96.9280 N.am  202  GLN202     -0.0878
    141  N         34.9140   49.2040   99.9600 N.am  203  VAL203     -0.1966
    142  CA        34.0270   50.3330  100.2770 C.3   203  VAL203      0.1727
    143  C         34.7210   51.3860  101.1380 C.2   203  VAL203      0.2616
    144  O         35.4180   51.0690  102.1150 O.2   203  VAL203     -0.2715
    145  CB        32.6780   49.9230  100.9380 C.3   203  VAL203      0.0290
    146  CG1       31.7570   51.1460  101.0870 C.3   203  VAL203      0.0023
    147  CG2       31.9660   48.8300  100.1230 C.3   203  VAL203      0.0023
    148  N         34.5450   52.6380  100.7340 N.am  204  ARG204     -0.1977
    149  CA        35.0360   53.7660  101.4810 C.3   204  ARG204      0.1597
    150  C         33.9490   54.8490  101.4700 C.2   204  ARG204      0.2287
    151  O         33.0340   54.7980  100.6570 O.2   204  ARG204     -0.2864
    152  CB        36.3460   54.2830  100.8770 C.3   204  ARG204      0.0334
    153  CG        37.5630   53.3780  101.0620 C.3   204  ARG204      0.0492
    154  CD        38.0000   53.2630  102.5200 C.3   204  ARG204      0.2205
    155  NE        39.2320   52.4920  102.6160 N.pl3 204  ARG204     -0.0865
    156  CZ        39.2840   51.1650  102.6730 C.cat 204  ARG204      0.5346
    157  NH1       38.1570   50.4500  102.6730 N.pl3 204  ARG204      0.1354
    158  NH2       40.4650   50.5590  102.7370 N.pl3 204  ARG204      0.1354
@<TRIPOS>BOND
     1   140   138   am
     2   122   123    1
     3   124   123    1
     4   124   125    2
     5   123   126    1
     6   132   133    1
     7   135   134    2
     8   136   133    1
     9   136   137    1
    10     1     2    1
    11   138   139    2
    12   138   137    1
    13   133   134    1
    14   134   141   am
    15   126   127    1
    16     2     3    1
    17     2     5    1
    18     4     3    2
    19   127   128   ar
    20   127   129   ar
    21   141   142    1
    22     3    12   am
    23    18    16    1
    24   147   145    1
    25     5     6    1
    26   128   130   ar
    27   142   145    1
    28   142   143    1
    29    16    17    1
    30    16    13    1
    31   129   131   ar
    32   151   150    2
    33    12    13    1
    34   148   143   am
    35   148   149    1
    36   152   153    1
    37   152   149    1
    38   145   146    1
    39   153   154    1
    40   130   131   ar
    41   143   144    2
    42    13    14    1
    43   150   149    1
    44     6     7    1
    45     8     7    1
    46     8     9    2
    47   154   155    1
    48    14    15    2
    49    14    19   am
    50   155   156    2
    51    11     9    1
    52   156   157    1
    53   156   158    1
    54     9    10    1
    55    19    20    1
    56    34    32    1
    57    33    32    1
    58    22    21    2
    59    32    31    2
    60    21    20    1
    61    20    23    1
    62    24    25    1
    63    31    30    1
    64    29    30    1
    65    29    28    1
    66    26    25    1
    67    26    27    2
    68    25    28    1
    69    82    83    1
    70    83    86    1
    71    83    84    1
    72    77    76    2
    73    86    87    1
    74    94    93    1
    75    94    88    1
    76    76    75    1
    77    84    88   am
    78    84    85    2
    79    93    92    1
    80    88    89    1
    81    58    59    1
    82    58    57    1
    83    92    89    1
    84    61    59   am
    85    54    53    1
    86    54    57    1
    87    54    55    1
    88    75    74    1
    89    75    78    1
    90    59    60    2
    91    56    55    2
    92    89    90    1
    93    65    64    2
    94    79    80    1
    95    79    78    1
    96    79    81    1
    97    91    90    2
    98    90    95   am
    99    64    63    1
   100   102   100    1
   101   100    99    1
   102    95    96    1
   103    52    51    2
   104    63    66    1
   105    63    62    1
   106    66    67    1
   107    96    99    1
   108    96    97    1
   109    99   101    1
   110    69    67   ar
   111    69    71   ar
   112    51    50    1
   113    67    68   ar
   114    50    49    1
   115    71    72   ar
   116    97   103   am
   117    97    98    2
   118   121   120    1
   119    38    37    2
   120    47    48   ar
   121    47    45   ar
   122   103   104    1
   123    68    70   ar
   124    49    37   am
   125    48    46   ar
   126    72    70   ar
   127    72    73    1
   128    45    42   ar
   129   120   117    1
   130    37    36    1
   131   111   109   ar
   132   109   108    1
   133   109   110   ar
   134   108   107    1
   135   118   119    2
   136   118   117    1
   137   107   104    1
   138   104   105    1
   139   112   113    1
   140   112   105   am
   141   117   116    1
   142   113   114    1
   143    46    44   ar
   144    42    44   ar
   145    42    40   ar
   146   105   106    2
   147    36    39    1
   148    36    35    1
   149   115   114    2
   150    44    43   ar
   151    39    40    1
   152    40    41   ar
   153    43    41   ar
