@<TRIPOS>MOLECULE
tmp/2hb0A03.pdb
 83 78 0 0 0
SMALL
GASTEIGER

@<TRIPOS>ATOM
      1  N         39.0250   20.2390  107.0780 N.3    16  PRO16      -0.2116
      2  CA        38.2430   21.4800  107.0560 C.3    16  PRO16       0.1372
      3  C         39.1010   22.7410  107.0760 C.2    16  PRO16       0.2244
      4  O         40.1180   22.7780  107.7400 O.2    16  PRO16      -0.2868
      5  CB        37.4560   21.4220  108.3740 C.3    16  PRO16       0.0268
      6  CG        37.6220   20.0340  108.8830 C.3    16  PRO16       0.0207
      7  CD        38.9110   19.5240  108.3570 C.3    16  PRO16       0.0892
      8  N         34.4460   25.7940  106.7770 N.3   177  THR177     -0.1218
      9  CA        33.6730   26.2720  107.8990 C.3   177  THR177      0.1862
     10  C         33.8010   27.7980  108.0660 C.2   177  THR177      0.2287
     11  O         34.6440   28.4520  107.4200 O.2   177  THR177     -0.2866
     12  CB        34.0920   25.5910  109.1930 C.3   177  THR177      0.1770
     13  OG1       35.4430   25.9440  109.5040 O.3   177  THR177     -0.2211
     14  CG2       34.1080   24.0670  109.0350 C.3   177  THR177      0.0375
     15  N         27.8910   27.1180  107.8850 N.3   221  TYR221     -0.1241
     16  CA        28.2380   25.9440  107.1030 C.3   221  TYR221      0.1605
     17  C         27.0860   25.4960  106.2130 C.2   221  TYR221      0.2264
     18  O         26.9360   24.2990  105.9290 O.2   221  TYR221     -0.2867
     19  CB        28.5780   24.8320  108.0750 C.3   221  TYR221      0.0534
     20  CG        29.4700   23.7340  107.5500 C.ar  221  TYR221     -0.0201
     21  CD1       30.6210   24.0250  106.8310 C.ar  221  TYR221     -0.0009
     22  CD2       29.1840   22.3990  107.8190 C.ar  221  TYR221     -0.0009
     23  CE1       31.4530   23.0130  106.3750 C.ar  221  TYR221      0.0417
     24  CE2       30.0120   21.3820  107.3550 C.ar  221  TYR221      0.0417
     25  CZ        31.1410   21.6980  106.6360 C.ar  221  TYR221      0.1957
     26  OH        31.9720   20.6890  106.1920 O.3   221  TYR221     -0.2866
     27  N         24.9280   22.2900  106.7950 N.3   224  ASN224     -0.1225
     28  CA        25.4520   20.9530  106.5590 C.3   224  ASN224      0.1785
     29  C         25.6710   20.1870  107.8810 C.2   224  ASN224      0.2598
     30  O         25.9190   18.9820  107.8750 O.2   224  ASN224     -0.2718
     31  CB        26.7480   21.0070  105.7320 C.3   224  ASN224      0.1169
     32  CG        26.4870   21.2410  104.2390 C.2   224  ASN224      0.2627
     33  OD1       26.1120   20.3210  103.5220 O.2   224  ASN224     -0.2716
     34  ND2       26.6740   22.4700  103.7850 N.am  224  ASN224     -0.0877
     35  N         25.5740   20.8930  109.0120 N.am  225  SER225     -0.1938
     36  CA        25.7270   20.2310  110.3250 C.3   225  SER225      0.2055
     37  C         24.5970   19.2340  110.5130 C.2   225  SER225      0.2643
     38  O         23.4740   19.5050  110.1280 O.2   225  SER225     -0.2714
     39  CB        25.7270   21.2500  111.4520 C.3   225  SER225      0.2130
     40  OG        26.8230   22.1360  111.3240 O.3   225  SER225     -0.2179
     41  N         24.8950   18.0620  111.0770 N.am  226  SER226     -0.1949
     42  CA        23.8680   17.0450  111.2200 C.3   226  SER226      0.1924
     43  C         22.9670   17.1540  112.4610 C.2   226  SER226      0.2314
     44  O         21.9170   16.5230  112.5200 O.2   226  SER226     -0.2863
     45  CB        24.4430   15.6490  111.0420 C.3   226  SER226      0.2116
     46  OG        25.5750   15.4600  111.8580 O.3   226  SER226     -0.2180
     47  N         26.4590   20.9110  115.5320 N.3   334  SER334     -0.1202
     48  CA        27.3710   19.7830  115.6250 C.3   334  SER334      0.2020
     49  C         28.6010   19.9950  114.7510 C.2   334  SER334      0.2619
     50  O         28.6770   20.9380  113.9600 O.2   334  SER334     -0.2717
     51  CB        26.6510   18.5110  115.1990 C.3   334  SER334      0.2103
     52  OG        26.1380   18.6280  113.8830 O.3   334  SER334     -0.2182
     53  N         29.5490   19.1020  114.8770 N.am  335  SER335     -0.1937
     54  CA        30.7620   19.1570  114.1270 C.3   335  SER335      0.2055
     55  C         31.2690   17.7520  113.7450 C.2   335  SER335      0.2642
     56  O         30.7310   16.7600  114.2190 O.2   335  SER335     -0.2714
     57  CB        31.8250   19.8560  114.9620 C.3   335  SER335      0.2130
     58  OG        32.0350   19.1570  116.1810 O.3   335  SER335     -0.2179
     59  N         32.2920   17.6620  112.8370 N.am  336  GLN336     -0.1976
     60  CA        32.9050   16.3060  112.6800 C.3   336  GLN336      0.1601
     61  C         34.0560   16.4440  113.6250 C.2   336  GLN336      0.2287
     62  O         34.8270   17.4070  113.6150 O.2   336  GLN336     -0.2864
     63  CB        32.8500   15.7410  111.2790 C.3   336  GLN336      0.0394
     64  CG        31.7350   14.6860  111.3960 C.3   336  GLN336      0.0908
     65  CD        31.2610   14.0700  110.1140 C.2   336  GLN336      0.2608
     66  OE1       32.0280   13.3680  109.4390 O.2   336  GLN336     -0.2717
     67  NE2       30.0620   14.1950  109.5780 N.am  336  GLN336     -0.0878
     68  N         35.4650   18.2040  115.8130 N.3   338  LEU338     -0.1245
     69  CA        36.2580   19.2910  116.3700 C.3   338  LEU338      0.1561
     70  C         35.4660   19.6530  117.6270 C.2   338  LEU338      0.2260
     71  O         35.9750   19.5570  118.7350 O.2   338  LEU338     -0.2867
     72  CB        36.4040   20.5310  115.4370 C.3   338  LEU338      0.0270
     73  CG        35.5300   20.8200  114.2060 C.3   338  LEU338      0.0019
     74  CD1       34.7870   19.5570  113.7990 C.3   338  LEU338      0.0001
     75  CD2       34.5480   21.9620  114.4960 C.3   338  LEU338      0.0001
     76  N         32.4640   22.5190  117.7950 N.3   340  ASN340     -0.1240
     77  CA        32.1080   23.9630  117.8380 C.3   340  ASN340      0.1653
     78  C         31.8230   24.6440  119.1780 C.2   340  ASN340      0.2266
     79  O         31.4540   24.0140  120.1680 O.2   340  ASN340     -0.2867
     80  CB        30.9020   24.1840  116.9550 C.3   340  ASN340      0.1155
     81  CG        31.2570   24.1100  115.5050 C.2   340  ASN340      0.2627
     82  OD1       31.0880   25.0630  114.7460 O.2   340  ASN340     -0.2716
     83  ND2       31.7470   22.9420  115.0910 N.am  340  ASN340     -0.0877
@<TRIPOS>BOND
     1    33    32    2
     2    34    32   am
     3    32    31    1
     4    31    28    1
     5    18    17    2
     6    26    25    1
     7    17    16    1
     8    23    25   ar
     9    23    21   ar
    10    28    27    1
    11    28    29    1
    12    25    24   ar
    13     8     9    1
    14    21    20   ar
    15     2     3    1
    16     2     1    1
    17     2     5    1
    18     3     4    2
    19     1     7    1
    20    16    15    1
    21    16    19    1
    22    24    22   ar
    23    11    10    2
    24    20    22   ar
    25    20    19    1
    26    30    29    2
    27    29    35   am
    28     9    10    1
    29     9    12    1
    30     7     6    1
    31     5     6    1
    32    35    36    1
    33    14    12    1
    34    12    13    1
    35    66    65    2
    36    67    65   am
    37    65    64    1
    38    38    37    2
    39    36    37    1
    40    36    39    1
    41    37    41   am
    42    45    42    1
    43    45    46    1
    44    41    42    1
    45    42    43    1
    46    63    64    1
    47    63    60    1
    48    40    39    1
    49    43    44    2
    50    60    59    1
    51    60    61    1
    52    59    55   am
    53    62    61    2
    54    55    54    1
    55    55    56    2
    56    74    73    1
    57    52    51    1
    58    50    49    2
    59    54    53    1
    60    54    57    1
    61    73    75    1
    62    73    72    1
    63    82    81    2
    64    49    53   am
    65    49    48    1
    66    57    58    1
    67    83    81   am
    68    51    48    1
    69    72    69    1
    70    81    80    1
    71    47    48    1
    72    68    69    1
    73    69    70    1
    74    80    77    1
    75    70    71    2
    76    76    77    1
    77    77    78    1
    78    78    79    2
