@<TRIPOS>MOLECULE
tmp/2hb1A00.pdb
 105 99 0 0 0
SMALL
GASTEIGER

@<TRIPOS>ATOM
      1  N         38.7500    9.2020    1.7930 N.3    45  TYR45      -0.1241
      2  CA        39.8860    8.7680    0.9830 C.3    45  TYR45       0.1605
      3  C         40.0490    7.2490    1.0190 C.2    45  TYR45       0.2264
      4  O         40.1370    6.6400    2.0840 O.2    45  TYR45      -0.2867
      5  CB        41.1770    9.4320    1.4760 C.3    45  TYR45       0.0534
      6  CG        41.1710   10.9410    1.3450 C.ar   45  TYR45      -0.0201
      7  CD1       41.2290   11.5520    0.0930 C.ar   45  TYR45      -0.0009
      8  CD2       41.0450   11.7570    2.4740 C.ar   45  TYR45      -0.0009
      9  CE1       41.1560   12.9390   -0.0330 C.ar   45  TYR45       0.0417
     10  CE2       40.9670   13.1450    2.3570 C.ar   45  TYR45       0.0417
     11  CZ        41.0210   13.7280    1.1040 C.ar   45  TYR45       0.1957
     12  OH        40.9310   15.0970    0.9790 O.3    45  TYR45      -0.2866
     13  N         43.1170    6.0300    2.9960 N.3    48  VAL48      -0.1245
     14  CA        43.3140    6.4700    4.3760 C.3    48  VAL48       0.1561
     15  C         42.2160    5.8580    5.2270 C.2    48  VAL48       0.2260
     16  O         41.0530    6.2630    5.1570 O.2    48  VAL48      -0.2867
     17  CB        43.2810    8.0090    4.5000 C.3    48  VAL48       0.0252
     18  CG1       43.4820    8.4170    5.9550 C.3    48  VAL48       0.0019
     19  CG2       44.3730    8.6250    3.6260 C.3    48  VAL48       0.0019
     20  N         37.0670   19.6830    0.9190 N.3   119  LYS119     -0.1245
     21  CA        37.8670   18.7980    1.7590 C.3   119  LYS119      0.1561
     22  C         37.1860   18.4140    3.0620 C.2   119  LYS119      0.2260
     23  O         37.6940   17.5750    3.8050 O.2   119  LYS119     -0.2867
     24  CB        39.1920   19.4880    2.1070 C.3   119  LYS119      0.0271
     25  CG        40.0200   19.9490    0.9090 C.3   119  LYS119      0.0035
     26  CD        40.4530   18.7740    0.0450 C.3   119  LYS119      0.0206
     27  CE        41.5880   19.1750   -0.8760 C.3   119  LYS119      0.1093
     28  NZ        42.7710   19.6290   -0.0880 N.3   119  LYS119     -0.1314
     29  N         47.2370   22.2250    2.5730 N.3   180  ASP180     -0.1225
     30  CA        47.2360   20.7700    2.5080 C.3   180  ASP180      0.1805
     31  C         48.6310   20.3340    2.0460 C.2   180  ASP180      0.2597
     32  O         49.1910   20.9090    1.1060 O.2   180  ASP180     -0.2718
     33  CB        46.1580   20.2910    1.5240 C.3   180  ASP180      0.1424
     34  CG        46.2690   20.9580    0.1580 C.2   180  ASP180      0.3668
     35  OD1       46.8270   20.3300   -0.7710 O.co2 180  ASP180     -0.2456
     36  OD2       45.8110   22.1130    0.0210 O.co2 180  ASP180     -0.2456
     37  N         49.1930   19.3390    2.7240 N.am  181  PHE181     -0.1976
     38  CA        50.5290   18.8440    2.4080 C.3   181  PHE181      0.1639
     39  C         51.5250   19.9770    2.6120 C.2   181  PHE181      0.2290
     40  O         52.6280   19.9520    2.0590 O.2   181  PHE181     -0.2864
     41  CB        50.6000   18.3400    0.9600 C.3   181  PHE181      0.0560
     42  CG        49.8540   17.0530    0.7290 C.ar  181  PHE181     -0.0200
     43  CD1       50.3750   15.8420    1.1740 C.ar  181  PHE181     -0.0042
     44  CD2       48.6130   17.0570    0.0980 C.ar  181  PHE181     -0.0042
     45  CE1       49.6700   14.6510    0.9940 C.ar  181  PHE181     -0.0003
     46  CE2       47.9030   15.8760   -0.0850 C.ar  181  PHE181     -0.0003
     47  CZ        48.4320   14.6680    0.3650 C.ar  181  PHE181     -0.0000
     48  N         41.8500   17.1580    9.8220 N.3   214  CYS214     -0.1221
     49  CA        42.1760   18.0310    8.7070 C.3   214  CYS214      0.1808
     50  C         41.2660   17.4230    7.6490 C.2   214  CYS214      0.2602
     51  O         40.0960   17.1730    7.9380 O.2   214  CYS214     -0.2717
     52  CB        43.6660   17.9750    8.3150 C.3   214  CYS214      0.0970
     53  SG        44.5360   16.3810    8.4310 S.3   214  CYS214     -0.0800
     54  N         41.7530   17.1760    6.4430 N.am  215  SER215     -0.1938
     55  CA        40.8690   16.5720    5.4550 C.3   215  SER215      0.2055
     56  C         40.9150   15.0480    5.6190 C.2   215  SER215      0.2642
     57  O         39.8780   14.3990    5.7390 O.2   215  SER215     -0.2714
     58  CB        41.2830   16.9620    4.0370 C.3   215  SER215      0.2130
     59  OG        40.3030   16.5230    3.1120 O.3   215  SER215     -0.2179
     60  N         42.1240   14.4900    5.6440 N.am  216  ALA216     -0.1977
     61  CA        42.2970   13.0430    5.7980 C.3   216  ALA216      0.1597
     62  C         42.5500   12.6330    7.2510 C.2   216  ALA216      0.2287
     63  O         42.3850   11.4670    7.6140 O.2   216  ALA216     -0.2864
     64  CB        43.4400   12.5620    4.9250 C.3   216  ALA216      0.0319
     65  N         45.5840   12.8880    8.9480 N.3   218  ILE218     -0.1231
     66  CA        46.8900   12.2660    9.1770 C.3   218  ILE218      0.1692
     67  C         48.0910   13.1800    8.9180 C.2   218  ILE218      0.2593
     68  O         49.0590   13.1550    9.6730 O.2   218  ILE218     -0.2718
     69  CB        47.0660   10.9500    8.3530 C.3   218  ILE218      0.0266
     70  CG1       46.9800   11.2310    6.8560 C.3   218  ILE218      0.0019
     71  CG2       45.9900    9.9390    8.7460 C.3   218  ILE218      0.0020
     72  CD1       47.2230    9.9970    6.0020 C.3   218  ILE218      0.0001
     73  N         48.0320   13.9930    7.8670 N.am  219  GLY219     -0.1942
     74  CA        49.1480   14.8780    7.5650 C.3   219  GLY219      0.2014
     75  C         49.2570   16.0320    8.5420 C.2   219  GLY219      0.2638
     76  O         50.0940   16.0310    9.4520 O.2   219  GLY219     -0.2714
     77  N         48.4080   17.0310    8.3470 N.am  220  ARG220     -0.1977
     78  CA        48.3980   18.1910    9.2240 C.3   220  ARG220      0.1597
     79  C         48.0550   17.7810   10.6620 C.2   220  ARG220      0.2287
     80  O         48.6930   18.2400   11.6030 O.2   220  ARG220     -0.2864
     81  CB        47.4030   19.2310    8.6970 C.3   220  ARG220      0.0334
     82  CG        47.9220   19.9770    7.4720 C.3   220  ARG220      0.0492
     83  CD        46.8620   20.8760    6.8530 C.3   220  ARG220      0.2205
     84  NE        45.8990   20.1260    6.0460 N.pl3 220  ARG220     -0.0865
     85  CZ        44.8970   20.6840    5.3710 C.cat 220  ARG220      0.5346
     86  NH1       44.7240   22.0000    5.4080 N.pl3 220  ARG220      0.1354
     87  NH2       44.0760   19.9290    4.6510 N.pl3 220  ARG220      0.1354
     88  N         52.5280   13.6890    6.5400 N.3   261  GLN261     -0.1245
     89  CA        52.5760   13.3560    5.1230 C.3   261  GLN261      0.1566
     90  C         53.7460   13.7840    4.2450 C.2   261  GLN261      0.2260
     91  O         53.8980   13.2600    3.1440 O.2   261  GLN261     -0.2867
     92  CB        51.2700   13.8190    4.4810 C.3   261  GLN261      0.0367
     93  CG        50.1270   12.8710    4.7510 C.3   261  GLN261      0.0905
     94  CD        50.2790   11.5890    3.9660 C.2   261  GLN261      0.2608
     95  OE1       50.2360   11.6040    2.7370 O.2   261  GLN261     -0.2717
     96  NE2       50.4720   10.4750    4.6640 N.am  261  GLN261     -0.0878
     97  N         56.8530   18.5380    6.6430 N.3   265  GLN265     -0.1245
     98  CA        55.9910   18.6140    7.8160 C.3   265  GLN265      0.1566
     99  C         56.7900   18.0400    8.9840 C.2   265  GLN265      0.2260
    100  O         56.6960   18.5220   10.1120 O.2   265  GLN265     -0.2867
    101  CB        54.6960   17.8230    7.6140 C.3   265  GLN265      0.0367
    102  CG        53.7820   18.4020    6.5460 C.3   265  GLN265      0.0905
    103  CD        52.4300   17.7210    6.4930 C.2   265  GLN265      0.2608
    104  OE1       52.3110   16.5270    6.7740 O.2   265  GLN265     -0.2717
    105  NE2       51.3980   18.4780    6.1190 N.am  265  GLN265     -0.0878
@<TRIPOS>BOND
     1    27    28    1
     2    27    26    1
     3    35    34   ar
     4    46    44   ar
     5    46    47   ar
     6     9     7   ar
     7     9    11   ar
     8    36    34   ar
     9    26    25    1
    10     7     6   ar
    11    44    42   ar
    12    34    33    1
    13    47    45   ar
    14    42    41    1
    15    42    43   ar
    16    25    24    1
    17    20    21    1
    18    41    38    1
    19    12    11    1
    20     2     3    1
    21     2     5    1
    22     2     1    1
    23    45    43   ar
    24     3     4    2
    25    11    10   ar
    26    32    31    2
    27     6     5    1
    28     6     8   ar
    29    33    30    1
    30    21    24    1
    31    21    22    1
    32    31    30    1
    33    31    37   am
    34    40    39    2
    35    10     8   ar
    36    38    39    1
    37    38    37    1
    38    30    29    1
    39    95    94    2
    40    13    14    1
    41    22    23    2
    42    59    58    1
    43    91    90    2
    44    19    17    1
    45    94    96   am
    46    94    93    1
    47    58    55    1
    48    90    89    1
    49    14    17    1
    50    14    15    1
    51    92    93    1
    52    92    89    1
    53    17    18    1
    54    87    85    1
    55    64    61    1
    56    89    88    1
    57    16    15    2
    58    85    86    1
    59    85    84    2
    60    55    56    1
    61    55    54    1
    62    56    60   am
    63    56    57    2
    64    60    61    1
    65    61    62    1
    66    72    70    1
    67    84    83    1
    68   105   103   am
    69    54    50   am
    70   103   102    1
    71   103   104    2
    72   102   101    1
    73    97    98    1
    74    83    82    1
    75    70    69    1
    76    62    63    2
    77    82    81    1
    78    74    73    1
    79    74    75    1
    80   101    98    1
    81    50    51    2
    82    50    49    1
    83    98    99    1
    84    73    67   am
    85    52    53    1
    86    52    49    1
    87    77    75   am
    88    77    78    1
    89    69    71    1
    90    69    66    1
    91    75    76    2
    92    81    78    1
    93    49    48    1
    94    67    66    1
    95    67    68    2
    96    65    66    1
    97    99   100    2
    98    78    79    1
    99    79    80    2
