@<TRIPOS>MOLECULE
tmp/2hb3A00.pdb
 129 120 0 0 0
SMALL
GASTEIGER

@<TRIPOS>ATOM
      1  N         26.3800   19.0820   17.1330 N.3     8  ARG8       -0.1245
      2  CA        25.1790   18.3880   16.6700 C.3     8  ARG8        0.1563
      3  C         25.5040   16.9640   16.2640 C.2     8  ARG8        0.2260
      4  O         26.4910   16.7710   15.5590 O.2     8  ARG8       -0.2867
      5  CB        24.5620   19.0950   15.4570 C.3     8  ARG8        0.0307
      6  CG        24.2530   20.5630   15.6950 C.3     8  ARG8        0.0489
      7  CD        23.4190   21.2010   14.5950 C.3     8  ARG8        0.2205
      8  NE        22.8490   22.4830   15.0130 N.pl3   8  ARG8       -0.0865
      9  CZ        21.9610   23.1630   14.2700 C.cat   8  ARG8        0.5346
     10  NH1       21.5460   22.6800   13.0940 N.pl3   8  ARG8        0.1354
     11  NH2       21.4940   24.3290   14.7120 N.pl3   8  ARG8        0.1354
     12  N         20.2830   14.6940   11.5380 N.3    23  LEU23      -0.1245
     13  CA        20.4500   14.7920   12.9610 C.3    23  LEU23       0.1561
     14  C         19.8300   13.6060   13.6840 C.2    23  LEU23       0.2260
     15  O         18.6580   13.2770   13.4570 O.2    23  LEU23      -0.2867
     16  CB        19.6820   16.0290   13.3780 C.3    23  LEU23       0.0270
     17  CG        19.9470   16.8470   14.5820 C.3    23  LEU23       0.0019
     18  CD1       21.3690   17.3180   14.7240 C.3    23  LEU23       0.0001
     19  CD2       18.9630   18.0260   14.5440 C.3    23  LEU23       0.0001
     20  N         17.9710   12.5590   16.5880 N.3    25  ASP25      -0.1239
     21  CA        17.1540   13.4260   17.4260 C.3    25  ASP25       0.1674
     22  C         16.1900   12.6880   18.3370 C.2    25  ASP25       0.2266
     23  O         15.0970   12.2790   17.9670 O.2    25  ASP25      -0.2867
     24  CB        16.3780   14.3590   16.4980 C.3    25  ASP25       0.1410
     25  CG        15.7180   15.4830   17.2750 C.2    25  ASP25       0.3668
     26  OD1       15.7860   15.4500   18.5370 O.co2  25  ASP25      -0.2456
     27  OD2       15.1780   16.4000   16.6210 O.co2  25  ASP25      -0.2456
     28  N         14.4840   13.9300   20.5920 N.3    27  GLY27      -0.1210
     29  CA        13.3080   14.7390   20.8100 C.3    27  GLY27       0.1956
     30  C         12.2530   14.6610   19.7510 C.2    27  GLY27       0.2612
     31  O         11.2070   15.3100   19.8990 O.2    27  GLY27      -0.2717
     32  N         12.4520   13.9430   18.6830 N.am   28  ALA28      -0.1965
     33  CA        11.5460   13.8220   17.5690 C.3    28  ALA28       0.1728
     34  C         10.8850   12.4470   17.6180 C.2    28  ALA28       0.2616
     35  O         11.5830   11.4360   17.5850 O.2    28  ALA28      -0.2715
     36  CB        12.2870   13.9760   16.2570 C.3    28  ALA28       0.0334
     37  N          9.5450   12.4250   17.6530 N.am   29  ASP29      -0.1957
     38  CA         8.8740   11.1390   17.6200 C.3    29  ASP29       0.1840
     39  C          9.1230   10.4120   16.3040 C.2    29  ASP29       0.2622
     40  O          9.3070    9.1700   16.2840 O.2    29  ASP29      -0.2715
     41  CB         7.3780   11.2950   17.8140 C.3    29  ASP29       0.1450
     42  CG         6.8980   11.8900   19.1020 C.2    29  ASP29       0.3671
     43  OD1        7.6370   11.9100   20.1150 O.co2  29  ASP29      -0.2456
     44  OD2        5.7460   12.3450   19.1350 O.co2  29  ASP29      -0.2456
     45  N          9.0640   11.1450   15.2070 N.am   30  ASP30      -0.1971
     46  CA         9.1270   10.6120   13.8480 C.3    30  ASP30       0.1709
     47  C         10.2360   11.3110   13.0760 C.2    30  ASP30       0.2293
     48  O         10.6690   12.3960   13.4030 O.2    30  ASP30      -0.2864
     49  CB         7.7980   10.7500   13.1140 C.3    30  ASP30       0.1436
     50  CG         6.9310    9.5020   13.0930 C.2    30  ASP30       0.3671
     51  OD1        7.3570    8.4000   13.5300 O.co2  30  ASP30      -0.2456
     52  OD2        5.7900    9.5720   12.5880 O.co2  30  ASP30      -0.2456
     53  N         11.8210   13.1380    9.8670 N.3    32  VAL32      -0.1245
     54  CA        11.3610   14.1920    8.9790 C.3    32  VAL32       0.1561
     55  C         12.5110   14.5850    8.0640 C.2    32  VAL32       0.2260
     56  O         13.5810   14.9870    8.5550 O.2    32  VAL32      -0.2867
     57  CB        10.8470   15.4450    9.7440 C.3    32  VAL32       0.0252
     58  CG1       10.0830   16.3590    8.7340 C.3    32  VAL32       0.0019
     59  CG2       10.0460   15.0810   10.9700 C.3    32  VAL32       0.0019
     60  N         -0.1540   15.1290    6.5430 N.3    45  LYS45      -0.1245
     61  CA        -0.0330   15.2090    7.9750 C.3    45  LYS45       0.1561
     62  C          0.4630   16.6070    8.3370 C.2    45  LYS45       0.2260
     63  O          1.1330   17.2500    7.5290 O.2    45  LYS45      -0.2867
     64  CB         0.9570   14.1420    8.4460 C.3    45  LYS45       0.0271
     65  CG         1.1030   13.9040    9.9180 C.3    45  LYS45       0.0035
     66  CD         2.1650   12.8830   10.2370 C.3    45  LYS45       0.0206
     67  CE         2.2430   12.4960   11.6940 C.3    45  LYS45       0.1093
     68  NZ         1.1420   11.7080   12.2410 N.3    45  LYS45      -0.1314
     69  N          2.6690   18.4750   11.4700 N.3    47  ILE47      -0.1231
     70  CA         3.5360   18.2530   12.6260 C.3    47  ILE47       0.1692
     71  C          4.0310   19.6090   13.1140 C.2    47  ILE47       0.2593
     72  O          4.1900   20.5550   12.3870 O.2    47  ILE47      -0.2718
     73  CB         4.7200   17.3140   12.3170 C.3    47  ILE47       0.0266
     74  CG1        5.6600   17.8610   11.2590 C.3    47  ILE47       0.0019
     75  CG2        4.2580   15.9020   11.9780 C.3    47  ILE47       0.0020
     76  CD1        6.9210   17.0210   11.0670 C.3    47  ILE47       0.0001
     77  N          4.2020   19.6830   14.4290 N.am   48  GLY48      -0.1942
     78  CA         4.4770   20.9520   15.0270 C.3    48  GLY48       0.2014
     79  C          5.5440   20.9170   16.0720 C.2    48  GLY48       0.2639
     80  O          5.8180   19.9140   16.7100 O.2    48  GLY48      -0.2714
     81  N          6.1690   22.0790   16.2300 N.am   49  GLY49      -0.1939
     82  CA         7.2220   22.2610   17.2000 C.3    49  GLY49       0.2014
     83  C          7.4270   23.7410   17.5010 C.2    49  GLY49       0.2638
     84  O          6.4820   24.5120   17.3920 O.2    49  GLY49      -0.2714
     85  N          8.6580   24.0750   17.8650 N.am   50  ILE50      -0.1977
     86  CA         8.9010   25.5210   18.0980 C.3    50  ILE50       0.1596
     87  C          8.6900   26.2450   16.8050 C.2    50  ILE50       0.2287
     88  O          9.1550   25.8320   15.7380 O.2    50  ILE50      -0.2864
     89  CB        10.3090   25.6720   18.6770 C.3    50  ILE50       0.0276
     90  CG1       10.3420   25.1990   20.1470 C.3    50  ILE50       0.0022
     91  CG2       10.8270   27.1070   18.5400 C.3    50  ILE50       0.0022
     92  CD1       11.6660   25.0270   20.8140 C.3    50  ILE50       0.0001
     93  N          8.4860   11.1970    7.1510 N.3    76  LEU76      -0.1245
     94  CA         7.7140   12.3730    6.8010 C.3    76  LEU76       0.1561
     95  C          8.5670   13.2500    5.9400 C.2    76  LEU76       0.2260
     96  O          9.7430   13.4170    6.2420 O.2    76  LEU76      -0.2867
     97  CB         7.2850   13.0710    8.0960 C.3    76  LEU76       0.0270
     98  CG         6.6360   12.1960    9.1500 C.3    76  LEU76       0.0019
     99  CD1        6.3050   13.0140   10.3910 C.3    76  LEU76       0.0001
    100  CD2        5.3970   11.5170    8.5470 C.3    76  LEU76       0.0001
    101  N         11.0360   20.9580    6.5010 N.3    80  THR80      -0.1204
    102  CA        11.8420   21.0130    7.7110 C.3    80  THR80       0.1982
    103  C         13.1670   21.7050    7.4660 C.2    80  THR80       0.2497
    104  O         13.7690   21.5280    6.3870 O.2    80  THR80      -0.2729
    105  CB        12.0890   19.5850    8.2660 C.3    80  THR80       0.1783
    106  OG1       12.8970   19.7600    9.4280 O.3    80  THR80      -0.2211
    107  CG2       12.7670   18.6910    7.2660 C.3    80  THR80       0.0376
    108  N         13.6760   22.5250    8.3750 N.am   81  PRO81      -0.2492
    109  CA        14.9650   23.1880    8.1220 C.3    81  PRO81       0.1619
    110  C         16.1600   22.2430    8.1910 C.2    81  PRO81       0.2605
    111  O         17.2410   22.6590    7.7500 O.2    81  PRO81      -0.2715
    112  CB        15.0930   24.2390    9.2290 C.3    81  PRO81       0.0570
    113  CG        13.8830   24.1340   10.0520 C.2    81  PRO81      -0.0077
    114  CD        13.0460   22.9780    9.6170 C.2    81  PRO81       0.0634
    115  N         15.9790   21.0610    8.7420 N.am   82  VAL82      -0.1978
    116  CA        17.0850   20.1220    8.9380 C.3    82  VAL82       0.1596
    117  C         16.5040   18.7380    8.7960 C.2    82  VAL82       0.2287
    118  O         15.3600   18.4580    9.1700 O.2    82  VAL82      -0.2864
    119  CB        17.7580   20.3960   10.2910 C.3    82  VAL82       0.0276
    120  CG1       16.8250   19.9160   11.4030 C.3    82  VAL82       0.0022
    121  CG2       19.1450   19.8100   10.4090 C.3    82  VAL82       0.0022
    122  N         15.9500   15.1400   10.0860 N.3    84  ILE84      -0.1245
    123  CA        15.8000   14.6290   11.4430 C.3    84  ILE84       0.1561
    124  C         15.5200   13.1420   11.4290 C.2    84  ILE84       0.2260
    125  O         14.5100   12.7170   10.8430 O.2    84  ILE84      -0.2867
    126  CB        14.6440   15.3930   12.1610 C.3    84  ILE84       0.0252
    127  CG1       14.9310   16.8920   12.2780 C.3    84  ILE84       0.0019
    128  CG2       14.2870   14.7100   13.4750 C.3    84  ILE84       0.0019
    129  CD1       13.7270   17.7200   12.6790 C.3    84  ILE84       0.0001
@<TRIPOS>BOND
     1    95    96    2
     2    95    94    1
     3   104   103    2
     4   101   102    1
     5    60    61    1
     6    94    93    1
     7    94    97    1
     8   107   105    1
     9   103   102    1
    10   103   108   am
    11    63    62    2
    12   102   105    1
    13   111   110    2
    14    61    62    1
    15    61    64    1
    16    55    56    2
    17    55    54    1
    18    97    98    1
    19   109   110    1
    20   109   108    1
    21   109   112    1
    22   110   115   am
    23   105   106    1
    24   108   114    1
    25    64    65    1
    26   100    98    1
    27    58    57    1
    28   115   116    1
    29   117   116    1
    30   117   118    2
    31   116   119    1
    32    54    57    1
    33    54    53    1
    34    98    99    1
    35   112   113    1
    36   114   113    2
    37    57    59    1
    38    65    66    1
    39   122   123    1
    40    66    67    1
    41   119   121    1
    42   119   120    1
    43   125   124    2
    44    76    74    1
    45    74    73    1
    46   124   123    1
    47   123   126    1
    48    69    70    1
    49    12    13    1
    50    67    68    1
    51    75    73    1
    52   126   127    1
    53   126   128    1
    54   127   129    1
    55    73    70    1
    56    72    71    2
    57    52    50   ar
    58    70    71    1
    59    13    16    1
    60    13    14    1
    61    47    48    2
    62    47    46    1
    63    50    49    1
    64    50    51   ar
    65    10     9    1
    66    49    46    1
    67    71    77   am
    68    16    17    1
    69    15    14    2
    70    46    45    1
    71     9    11    1
    72     9     8    2
    73    77    78    1
    74    19    17    1
    75    17    18    1
    76     7     8    1
    77     7     6    1
    78    78    79    1
    79    45    39   am
    80     5     6    1
    81     5     2    1
    82     4     3    2
    83    88    87    2
    84    79    81   am
    85    79    80    2
    86    81    82    1
    87    36    33    1
    88     3     2    1
    89    40    39    2
    90    39    38    1
    91    24    25    1
    92    24    21    1
    93    20    21    1
    94    27    25   ar
    95     2     1    1
    96    87    86    1
    97    82    83    1
    98    25    26   ar
    99    84    83    2
   100    21    22    1
   101    83    85   am
   102    33    34    1
   103    33    32    1
   104    35    34    2
   105    34    37   am
   106    38    37    1
   107    38    41    1
   108    41    42    1
   109    85    86    1
   110    23    22    2
   111    86    89    1
   112    91    89    1
   113    89    90    1
   114    32    30   am
   115    42    44   ar
   116    42    43   ar
   117    30    31    2
   118    30    29    1
   119    90    92    1
   120    28    29    1
