@<TRIPOS>MOLECULE
tmp/2hb9A00.pdb
 136 134 0 0 0
SMALL
GASTEIGER

@<TRIPOS>ATOM
      1  N         12.9510   24.0140   21.0420 N.3    10  TYR10      -0.1227
      2  CA        12.4160   23.9820   22.3980 C.3    10  TYR10       0.1736
      3  C         10.8940   24.0180   22.3280 C.2    10  TYR10       0.2596
      4  O         10.3070   24.9220   21.7160 O.2    10  TYR10      -0.2718
      5  CB        12.9510   25.1340   23.2620 C.3    10  TYR10       0.0548
      6  CG        13.0030   26.4760   22.5700 C.ar   10  TYR10      -0.0200
      7  CD1       14.0690   26.8020   21.7250 C.ar   10  TYR10      -0.0009
      8  CD2       12.0070   27.4280   22.7810 C.ar   10  TYR10      -0.0009
      9  CE1       14.1360   28.0400   21.0850 C.ar   10  TYR10       0.0417
     10  CE2       12.0610   28.6750   22.1530 C.ar   10  TYR10       0.0417
     11  CZ        13.1310   28.9730   21.3020 C.ar   10  TYR10       0.1957
     12  OH        13.1920   30.1960   20.6620 O.3    10  TYR10      -0.2866
     13  N         10.2750   23.0010   22.9170 N.am   11  THR11      -0.1939
     14  CA         8.8220   22.9620   23.0510 C.3    11  THR11       0.2028
     15  C          8.4160   23.4240   24.4500 C.2    11  THR11       0.2642
     16  O          9.1910   23.3250   25.4090 O.2    11  THR11      -0.2714
     17  CB         8.2480   21.5560   22.7920 C.3    11  THR11       0.1808
     18  OG1        8.8570   20.6180   23.6810 O.3    11  THR11      -0.2208
     19  CG2        8.4960   21.1210   21.3430 C.3    11  THR11       0.0379
     20  N          7.2000   23.9360   24.5590 N.am   12  VAL12      -0.1977
     21  CA         6.6940   24.4570   25.8220 C.3    12  VAL12       0.1596
     22  C          5.2810   23.9210   26.0450 C.2    12  VAL12       0.2287
     23  O          4.6330   23.4370   25.1100 O.2    12  VAL12      -0.2864
     24  CB         6.6900   26.0080   25.8330 C.3    12  VAL12       0.0276
     25  CG1        8.1200   26.5720   25.6950 C.3    12  VAL12       0.0022
     26  CG2        5.7910   26.5490   24.7210 C.3    12  VAL12       0.0022
     27  N          1.2840   27.9720   27.5230 N.3    16  TRP16      -0.1241
     28  CA         2.1980   29.0810   27.2880 C.3    16  TRP16       0.1605
     29  C          1.9230   29.6780   25.9200 C.2    16  TRP16       0.2264
     30  O          2.2830   30.8270   25.6560 O.2    16  TRP16      -0.2867
     31  CB         3.6500   28.6150   27.3100 C.3    16  TRP16       0.0550
     32  CG         4.1770   28.1560   28.6210 C.ar   16  TRP16       0.0003
     33  CD1        3.4740   27.6350   29.6880 C.ar   16  TRP16       0.0946
     34  CD2        5.5510   28.1290   28.9920 C.ar   16  TRP16       0.0152
     35  NE1        4.3500   27.2880   30.7000 N.ar   16  TRP16      -0.2442
     36  CE2        5.6270   27.5920   30.3000 C.ar   16  TRP16       0.0810
     37  CE3        6.7350   28.5230   28.3470 C.ar   16  TRP16       0.0012
     38  CZ2        6.8430   27.4380   30.9750 C.ar   16  TRP16       0.0191
     39  CZ3        7.9450   28.3590   29.0170 C.ar   16  TRP16       0.0001
     40  CH2        7.9860   27.8160   30.3130 C.ar   16  TRP16       0.0015
     41  N         13.4750   39.6840   31.0760 N.3    83  HIS83      -0.1241
     42  CA        14.7700   39.1340   30.7010 C.3    83  HIS83       0.1621
     43  C         14.7740   38.6170   29.2880 C.2    83  HIS83       0.2264
     44  O         13.7260   38.2890   28.7150 O.2    83  HIS83      -0.2867
     45  CB        15.2750   38.0820   31.7080 C.3    83  HIS83       0.0745
     46  CG        14.5630   36.7690   31.6550 C.ar   83  HIS83       0.0817
     47  ND1       13.4280   36.4900   32.3950 N.ar   83  HIS83      -0.2268
     48  CD2       14.8860   35.6230   31.0170 C.ar   83  HIS83       0.1154
     49  CE1       13.0780   35.2330   32.1990 C.ar   83  HIS83       0.1986
     50  NE2       13.9360   34.6900   31.3500 N.ar   83  HIS83      -0.2212
     51  N         15.3520   36.0070   27.4540 N.3    85  HIS85      -0.1241
     52  CA        15.2420   34.6290   27.0050 C.3    85  HIS85       0.1621
     53  C         14.1040   34.4700   26.0060 C.2    85  HIS85       0.2264
     54  O         13.2100   35.3270   25.9130 O.2    85  HIS85      -0.2867
     55  CB        15.0380   33.6870   28.1980 C.3    85  HIS85       0.0745
     56  CG        16.3060   33.3540   28.9140 C.ar   85  HIS85       0.0817
     57  ND1       16.3200   32.8510   30.1950 N.ar   85  HIS85      -0.2268
     58  CD2       17.6020   33.4590   28.5350 C.ar   85  HIS85       0.1154
     59  CE1       17.5690   32.6390   30.5700 C.ar   85  HIS85       0.1986
     60  NE2       18.3700   32.9940   29.5790 N.ar   85  HIS85      -0.2212
     61  N         11.4250   32.7620   25.7710 N.3    87  ASP87      -0.1225
     62  CA        10.0250   32.7300   26.1840 C.3    87  ASP87       0.1805
     63  C          9.4930   34.0690   26.7070 C.2    87  ASP87       0.2597
     64  O          8.3210   34.1410   27.1150 O.2    87  ASP87      -0.2718
     65  CB         9.7450   31.5660   27.1590 C.3    87  ASP87       0.1424
     66  CG        10.4770   31.7100   28.4920 C.2    87  ASP87       0.3668
     67  OD1       11.5860   32.2870   28.5090 O.co2  87  ASP87      -0.2456
     68  OD2        9.9330   31.2410   29.5260 O.co2  87  ASP87      -0.2456
     69  N         10.3260   35.1210   26.6660 N.am   88  HIS88      -0.1975
     70  CA         9.8730   36.4690   27.0240 C.3    88  HIS88       0.1656
     71  C         10.2130   37.5330   26.0060 C.2    88  HIS88       0.2291
     72  O          9.4350   38.4800   25.8200 O.2    88  HIS88      -0.2864
     73  CB        10.3630   36.8450   28.4340 C.3    88  HIS88       0.0771
     74  CG         9.9890   35.8090   29.4310 C.ar   88  HIS88       0.0820
     75  ND1        8.6800   35.6020   29.8200 N.ar   88  HIS88      -0.2267
     76  CD2       10.7130   34.8100   29.9850 C.ar   88  HIS88       0.1154
     77  CE1        8.6320   34.5670   30.6350 C.ar   88  HIS88       0.1986
     78  NE2        9.8520   34.0730   30.7490 N.ar   88  HIS88      -0.2212
     79  N         22.3080   27.8190   29.2190 N.3   123  PHE123     -0.1241
     80  CA        21.5800   27.0580   28.1860 C.3   123  PHE123      0.1605
     81  C         22.4280   26.8250   26.9400 C.2   123  PHE123      0.2264
     82  O         22.0120   26.0920   26.0360 O.2   123  PHE123     -0.2867
     83  CB        20.3170   27.7970   27.7160 C.3   123  PHE123      0.0534
     84  CG        19.3030   28.0760   28.7930 C.ar  123  PHE123     -0.0203
     85  CD1       19.1770   27.2570   29.9050 C.ar  123  PHE123     -0.0042
     86  CD2       18.4130   29.1430   28.6420 C.ar  123  PHE123     -0.0042
     87  CE1       18.2000   27.5100   30.8880 C.ar  123  PHE123     -0.0003
     88  CE2       17.4330   29.3930   29.6120 C.ar  123  PHE123     -0.0003
     89  CZ        17.3390   28.5730   30.7360 C.ar  123  PHE123     -0.0000
     90  N         18.3860   27.4700   23.5020 N.3   127  ILE127     -0.1245
     91  CA        17.1650   28.2570   23.4650 C.3   127  ILE127      0.1561
     92  C         17.4760   29.6040   22.8070 C.2   127  ILE127      0.2260
     93  O         17.7820   30.5800   23.4780 O.2   127  ILE127     -0.2867
     94  CB        16.5350   28.3750   24.8830 C.3   127  ILE127      0.0252
     95  CG1       16.4050   26.9670   25.5070 C.3   127  ILE127      0.0019
     96  CG2       15.1730   28.9880   24.7970 C.3   127  ILE127      0.0019
     97  CD1       16.1150   26.9290   26.9990 C.3   127  ILE127      0.0001
     98  N         18.5590   35.1780   37.4060 N.3   159  HIS159     -0.1241
     99  CA        17.9950   34.3440   36.3750 C.3   159  HIS159      0.1621
    100  C         18.7090   34.5740   35.0370 C.2   159  HIS159      0.2264
    101  O         19.0230   33.6230   34.2980 O.2   159  HIS159     -0.2867
    102  CB        16.4880   34.5430   36.2350 C.3   159  HIS159      0.0745
    103  CG        15.9050   33.6550   35.1950 C.ar  159  HIS159      0.0817
    104  ND1       15.6270   32.3330   35.4350 N.ar  159  HIS159     -0.2268
    105  CD2       15.6480   33.8670   33.8820 C.ar  159  HIS159      0.1154
    106  CE1       15.1930   31.7670   34.3230 C.ar  159  HIS159      0.1986
    107  NE2       15.2060   32.6750   33.3640 N.ar  159  HIS159     -0.2212
    108  N         11.5610   36.5870   36.7270 N.3   184  SER184     -0.1217
    109  CA        11.8020   35.2650   37.2780 C.3   184  SER184      0.1889
    110  C         12.9800   35.2240   38.2440 C.2   184  SER184      0.2288
    111  O         14.0080   35.8730   38.0230 O.2   184  SER184     -0.2866
    112  CB        12.0250   34.2490   36.1490 C.3   184  SER184      0.2089
    113  OG        12.1030   32.9320   36.6990 O.3   184  SER184     -0.2183
    114  N         13.7460   31.9020   39.0270 N.3   186  SER186     -0.1217
    115  CA        14.0590   30.4970   38.8460 C.3   186  SER186      0.1889
    116  C         15.5240   30.3760   38.4430 C.2   186  SER186      0.2288
    117  O         16.1660   31.3670   38.0230 O.2   186  SER186     -0.2866
    118  CB        13.1700   29.8990   37.7730 C.3   186  SER186      0.2089
    119  OG        13.3790   30.5550   36.5370 O.3   186  SER186     -0.2183
    120  N         16.5600   27.3160   36.3860 N.3   188  PRO188     -0.2116
    121  CA        16.2140   25.9820   35.8750 C.3   188  PRO188      0.1372
    122  C         17.4080   25.2130   35.2920 C.2   188  PRO188      0.2244
    123  O         17.9260   25.5640   34.2260 O.2   188  PRO188     -0.2868
    124  CB        15.1470   26.2780   34.8160 C.3   188  PRO188      0.0268
    125  CG        15.4340   27.6660   34.3610 C.3   188  PRO188      0.0207
    126  CD        15.9660   28.3920   35.5640 C.3   188  PRO188      0.0892
    127  N          5.8740   34.6000   34.1780 N.3   224  HIS224     -0.1241
    128  CA         4.9470   33.4700   34.2680 C.3   224  HIS224      0.1621
    129  C          3.9200   33.7700   35.3610 C.2   224  HIS224      0.2264
    130  O          4.2920   33.9000   36.5250 O.2   224  HIS224     -0.2867
    131  CB         5.7140   32.2090   34.5960 C.3   224  HIS224      0.0745
    132  CG         6.6940   31.8470   33.5350 C.ar  224  HIS224      0.0817
    133  ND1        6.3890   30.9660   32.5220 N.ar  224  HIS224     -0.2268
    134  CD2        7.9420   32.3000   33.2830 C.ar  224  HIS224      0.1154
    135  CE1        7.4230   30.8660   31.7070 C.ar  224  HIS224      0.1986
    136  NE2        8.3730   31.6690   32.1440 N.ar  224  HIS224     -0.2212
@<TRIPOS>BOND
     1    12    11    1
     2     1     2    1
     3     9    11   ar
     4     9     7   ar
     5    11    10   ar
     6    19    17    1
     7     4     3    2
     8     7     6   ar
     9    10     8   ar
    10     3     2    1
    11     3    13   am
    12     2     5    1
    13     6     8   ar
    14     6     5    1
    15    17    14    1
    16    17    18    1
    17    92    91    1
    18    92    93    2
    19    13    14    1
    20    14    15    1
    21    91    90    1
    22    91    94    1
    23    15    20   am
    24    15    16    2
    25    20    21    1
    26    26    24    1
    27    96    94    1
    28    94    95    1
    29    23    22    2
    30    95    97    1
    31    30    29    2
    32    25    24    1
    33    61    62    1
    34    72    71    2
    35    21    24    1
    36    21    22    1
    37    54    53    2
    38    29    28    1
    39    53    52    1
    40    71    70    1
    41    82    81    2
    42    62    63    1
    43    62    65    1
    44    69    63   am
    45    69    70    1
    46    63    64    2
    47    81    80    1
    48    52    51    1
    49    52    55    1
    50    70    73    1
    51    65    66    1
    52    28    31    1
    53    28    27    1
    54    31    32    1
    55    83    80    1
    56    83    84    1
    57    80    79    1
    58    55    56    1
    59    37    34   ar
    60    37    39   ar
    61    73    74    1
    62    66    67   ar
    63    66    68   ar
    64    58    56   ar
    65    58    60   ar
    66    32    34   ar
    67    32    33   ar
    68    86    84   ar
    69    86    88   ar
    70    44    43    2
    71    84    85   ar
    72    56    57   ar
    73    34    36   ar
    74    39    40   ar
    75    43    42    1
    76    74    75   ar
    77    74    76   ar
    78    60    59   ar
    79    88    89   ar
    80    33    35   ar
    81    75    77   ar
    82    85    87   ar
    83    76    78   ar
    84    57    59   ar
    85    36    35   ar
    86    36    38   ar
    87    40    38   ar
    88    77    78   ar
    89    42    41    1
    90    42    45    1
    91    89    87   ar
    92    48    50   ar
    93    48    46   ar
    94    50    49   ar
    95    46    45    1
    96    46    47   ar
    97   135   136   ar
    98   135   133   ar
    99   136   134   ar
   100    49    47   ar
   101   133   132   ar
   102   134   132   ar
   103   107   105   ar
   104   107   106   ar
   105   132   131    1
   106   105   103   ar
   107   127   128    1
   108   123   122    2
   109   128   131    1
   110   128   129    1
   111   101   100    2
   112   106   104   ar
   113   125   124    1
   114   125   126    1
   115   124   121    1
   116   100    99    1
   117   103   104   ar
   118   103   102    1
   119   122   121    1
   120   129   130    2
   121   126   120    1
   122   121   120    1
   123   112   113    1
   124   112   109    1
   125   102    99    1
   126    99    98    1
   127   119   118    1
   128   108   109    1
   129   109   110    1
   130   118   115    1
   131   117   116    2
   132   111   110    2
   133   116   115    1
   134   115   114    1
