@<TRIPOS>MOLECULE
tmp/2hblA00.pdb
 145 143 0 0 0
SMALL
GASTEIGER

@<TRIPOS>ATOM
      1  N         79.4710   13.4880    8.1770 N.3   112  ASP112     -0.1225
      2  CA        78.1030   13.5820    8.6490 C.3   112  ASP112      0.1805
      3  C         77.1670   13.2230    7.4900 C.2   112  ASP112      0.2598
      4  O         77.5970   13.1530    6.3410 O.2   112  ASP112     -0.2718
      5  CB        77.7770   14.9830    9.1580 C.3   112  ASP112      0.1424
      6  CG        76.4820   15.0170    9.9300 C.2   112  ASP112      0.3668
      7  OD1       76.1780   14.0080   10.5880 O.co2 112  ASP112     -0.2456
      8  OD2       75.7640   16.0320    9.8890 O.co2 112  ASP112     -0.2456
      9  N         75.8960   12.9890    7.8000 N.am  113  LEU113     -0.1966
     10  CA        74.9050   12.6390    6.7810 C.3   113  LEU113      0.1728
     11  C         73.5420   13.2510    7.0780 C.2   113  LEU113      0.2616
     12  O         73.2050   13.5250    8.2370 O.2   113  LEU113     -0.2715
     13  CB        74.7090   11.1220    6.7190 C.3   113  LEU113      0.0311
     14  CG        75.8770   10.1660    6.4790 C.3   113  LEU113      0.0022
     15  CD1       75.3530    8.7290    6.5480 C.3   113  LEU113      0.0001
     16  CD2       76.5050   10.4400    5.1350 C.3   113  LEU113      0.0001
     17  N         72.7590   13.4550    6.0220 N.am  114  GLU114     -0.1963
     18  CA        71.4020   13.9640    6.1670 C.3   114  GLU114      0.1733
     19  C         70.5080   12.8550    5.5820 C.2   114  GLU114      0.2616
     20  O         70.8280   12.2720    4.5470 O.2   114  GLU114     -0.2715
     21  CB        71.2270   15.2860    5.4200 C.3   114  GLU114      0.0429
     22  CG        72.0750   16.4460    5.9620 C.3   114  GLU114      0.1163
     23  CD        72.0670   16.5510    7.4810 C.2   114  GLU114      0.3649
     24  OE1       70.9960   16.4030    8.1110 O.co2 114  GLU114     -0.2457
     25  OE2       73.1470   16.8030    8.0500 O.co2 114  GLU114     -0.2457
     26  N         69.3900   12.5860    6.2460 N.am  115  HIS115     -0.1959
     27  CA        68.4920   11.4880    5.8810 C.3   115  HIS115      0.1787
     28  C         67.0280   11.9160    5.6360 C.2   115  HIS115      0.2620
     29  O         66.6020   12.9810    6.0790 O.2   115  HIS115     -0.2715
     30  CB        68.5980   10.4650    7.0350 C.3   115  HIS115      0.0785
     31  CG        67.9690    9.1320    6.7680 C.ar  115  HIS115      0.0821
     32  ND1       66.7590    8.7610    7.3170 N.ar  115  HIS115     -0.2267
     33  CD2       68.4240    8.0490    6.0950 C.ar  115  HIS115      0.1154
     34  CE1       66.5010    7.5050    7.0000 C.ar  115  HIS115      0.1986
     35  NE2       67.4950    7.0490    6.2590 N.ar  115  HIS115     -0.2212
     36  N         66.2700   11.0890    4.9100 N.am  116  HIS116     -0.1959
     37  CA        64.8500   11.3640    4.6270 C.3   116  HIS116      0.1787
     38  C         64.0430   10.0860    4.8450 C.2   116  HIS116      0.2620
     39  O         64.4380    9.0160    4.3790 O.2   116  HIS116     -0.2715
     40  CB        64.6440   11.8360    3.1820 C.3   116  HIS116      0.0785
     41  CG        63.2010   11.9740    2.8030 C.ar  116  HIS116      0.0821
     42  ND1       62.4060   13.0080    3.2540 N.ar  116  HIS116     -0.2267
     43  CD2       62.3910   11.1670    2.0780 C.ar  116  HIS116      0.1154
     44  CE1       61.1690   12.8290    2.8250 C.ar  116  HIS116      0.1986
     45  NE2       61.1330   11.7190    2.1090 N.ar  116  HIS116     -0.2212
     46  N         62.9060   10.1900    5.5250 N.am  117  ASP117     -0.1971
     47  CA        62.1080    8.9970    5.8040 C.3   117  ASP117      0.1709
     48  C         60.6030    9.1620    5.6120 C.2   117  ASP117      0.2293
     49  O         59.8370    8.2380    5.8980 O.2   117  ASP117     -0.2864
     50  CB        62.3720    8.5400    7.2360 C.3   117  ASP117      0.1436
     51  CG        61.7480    9.4600    8.2580 C.2   117  ASP117      0.3671
     52  OD1       61.7690   10.6890    8.0530 O.co2 117  ASP117     -0.2456
     53  OD2       61.2360    8.9590    9.2770 O.co2 117  ASP117     -0.2456
     54  N         79.8250   12.6610   15.0350 N.3   165  HIS165     -0.1226
     55  CA        79.2240   12.9380   16.3250 C.3   165  HIS165      0.1752
     56  C         77.9500   12.0880   16.4270 C.2   165  HIS165      0.2596
     57  O         76.9630   12.3430   15.7200 O.2   165  HIS165     -0.2718
     58  CB        78.8260   14.3980   16.5020 C.3   165  HIS165      0.0759
     59  CG        78.2380   14.6680   17.8510 C.ar  165  HIS165      0.0818
     60  ND1       79.0120   14.9740   18.9490 N.ar  165  HIS165     -0.2268
     61  CD2       76.9660   14.5550   18.3090 C.ar  165  HIS165      0.1154
     62  CE1       78.2460   15.0390   20.0250 C.ar  165  HIS165      0.1986
     63  NE2       76.9990   14.7860   19.6640 N.ar  165  HIS165     -0.2212
     64  N         77.9780   11.0900   17.3100 N.am  166  GLY166     -0.1957
     65  CA        76.8260   10.2180   17.5080 C.3   166  GLY166      0.1869
     66  C         76.4750    9.5240   16.2120 C.2   166  GLY166      0.2309
     67  O         75.4110    9.7510   15.6340 O.2   166  GLY166     -0.2863
     68  N         74.2530    6.6680   11.6110 N.3   170  ASP170     -0.1239
     69  CA        75.0280    6.9040   10.3900 C.3   170  ASP170      0.1674
     70  C         75.6320    5.6060    9.8770 C.2   170  ASP170      0.2266
     71  O         75.6130    5.3170    8.6800 O.2   170  ASP170     -0.2867
     72  CB        76.1530    7.9110   10.6460 C.3   170  ASP170      0.1410
     73  CG        75.6380    9.3100   10.9080 C.2   170  ASP170      0.3668
     74  OD1       74.7620    9.7700   10.1530 O.co2 170  ASP170     -0.2456
     75  OD2       76.1130    9.9550   11.8630 O.co2 170  ASP170     -0.2456
     76  N         72.8830    3.6770    8.2810 N.3   173  TRP173     -0.1241
     77  CA        72.5740    4.2740    6.9840 C.3   173  TRP173      0.1605
     78  C         73.6570    4.0510    5.9240 C.2   173  TRP173      0.2264
     79  O         73.3550    3.7540    4.7640 O.2   173  TRP173     -0.2867
     80  CB        72.3160    5.7780    7.1470 C.3   173  TRP173      0.0550
     81  CG        71.1430    6.1100    8.0330 C.ar  173  TRP173      0.0003
     82  CD1       70.0530    5.3190    8.2860 C.ar  173  TRP173      0.0946
     83  CD2       70.9230    7.3340    8.7510 C.ar  173  TRP173      0.0152
     84  NE1       69.1740    5.9740    9.1140 N.ar  173  TRP173     -0.2442
     85  CE2       69.6800    7.2120    9.4140 C.ar  173  TRP173      0.0810
     86  CE3       71.6540    8.5220    8.8970 C.ar  173  TRP173      0.0012
     87  CZ2       69.1490    8.2370   10.2140 C.ar  173  TRP173      0.0191
     88  CZ3       71.1260    9.5430    9.6950 C.ar  173  TRP173      0.0001
     89  CH2       69.8850    9.3900   10.3410 C.ar  173  TRP173      0.0015
     90  N         75.7550   17.7990   19.5010 N.3   202  LEU202     -0.1245
     91  CA        76.6530   18.4860   18.5760 C.3   202  LEU202      0.1561
     92  C         76.4730   20.0010   18.7560 C.2   202  LEU202      0.2260
     93  O         77.4370   20.7550   18.7720 O.2   202  LEU202     -0.2867
     94  CB        76.3220   18.0990   17.1280 C.3   202  LEU202      0.0270
     95  CG        77.0990   18.8170   16.0210 C.3   202  LEU202      0.0019
     96  CD1       78.5880   18.5690   16.1820 C.3   202  LEU202      0.0001
     97  CD2       76.6150   18.3340   14.6640 C.3   202  LEU202      0.0001
     98  N         67.5910   24.0740   15.0350 N.3   216  LYS216     -0.1245
     99  CA        66.8460   22.8190   14.9050 C.3   216  LYS216      0.1561
    100  C         65.7730   22.9300   13.8210 C.2   216  LYS216      0.2260
    101  O         64.8220   22.1460   13.7920 O.2   216  LYS216     -0.2867
    102  CB        66.1780   22.4630   16.2400 C.3   216  LYS216      0.0271
    103  CG        66.9590   21.4870   17.1100 C.3   216  LYS216      0.0035
    104  CD        66.9640   20.0900   16.5000 C.3   216  LYS216      0.0206
    105  CE        67.6860   19.0870   17.3910 C.3   216  LYS216      0.1093
    106  NZ        67.6590   17.7130   16.8110 N.3   216  LYS216     -0.1314
    107  N         66.1410   19.6240   11.0110 N.3   219  GLN219     -0.1231
    108  CA        66.0990   18.2160   11.3860 C.3   219  GLN219      0.1698
    109  C         64.7030   17.6990   11.0560 C.2   219  GLN219      0.2592
    110  O         64.3180   16.5950   11.4450 O.2   219  GLN219     -0.2718
    111  CB        66.4010   18.0560   12.8800 C.3   219  GLN219      0.0381
    112  CG        67.8630   18.3070   13.2540 C.3   219  GLN219      0.0905
    113  CD        68.3980   19.6210   12.7060 C.2   219  GLN219      0.2608
    114  OE1       67.8440   20.6910   12.9700 O.2   219  GLN219     -0.2717
    115  NE2       69.4810   19.5440   11.9380 N.am  219  GLN219     -0.0878
    116  N         63.9570   18.5300   10.3300 N.am  220  LEU220     -0.1980
    117  CA        62.5990   18.2300    9.8840 C.3   220  LEU220      0.1596
    118  C         62.4790   18.6790    8.4220 C.2   220  LEU220      0.2287
    119  O         61.4140   18.5720    7.8070 O.2   220  LEU220     -0.2864
    120  CB        61.5790   18.9850   10.7480 C.3   220  LEU220      0.0297
    121  CG        60.1030   18.9440   10.3220 C.3   220  LEU220      0.0022
    122  CD1       59.5770   17.5150   10.4040 C.3   220  LEU220      0.0001
    123  CD2       59.2780   19.8690   11.2130 C.3   220  LEU220      0.0001
    124  N         65.6210   16.9580    2.7660 N.3   223  TRP223     -0.1241
    125  CA        66.9360   16.9520    2.1350 C.3   223  TRP223      0.1605
    126  C         66.9880   16.3760    0.7250 C.2   223  TRP223      0.2264
    127  O         68.0610   16.2700    0.1410 O.2   223  TRP223     -0.2867
    128  CB        67.9420   16.2170    3.0330 C.3   223  TRP223      0.0550
    129  CG        68.1930   16.9400    4.3420 C.ar  223  TRP223      0.0003
    130  CD1       67.5670   16.7210    5.5420 C.ar  223  TRP223      0.0946
    131  CD2       69.0970   18.0340    4.5550 C.ar  223  TRP223      0.0152
    132  NE1       68.0260   17.6120    6.4870 N.ar  223  TRP223     -0.2442
    133  CE2       68.9650   18.4300    5.9090 C.ar  223  TRP223      0.0810
    134  CE3       70.0020   18.7190    3.7360 C.ar  223  TRP223      0.0012
    135  CZ2       69.7110   19.4870    6.4620 C.ar  223  TRP223      0.0191
    136  CZ3       70.7460   19.7750    4.2850 C.ar  223  TRP223      0.0001
    137  CH2       70.5920   20.1450    5.6380 C.ar  223  TRP223      0.0015
    138  N         77.9660   21.0140   10.0930 N.3   239  ASP239     -0.1239
    139  CA        78.0500   19.7920   10.8820 C.3   239  ASP239      0.1674
    140  C         79.4350   19.1700   10.8850 C.2   239  ASP239      0.2266
    141  O         79.7780   18.4360   11.8120 O.2   239  ASP239     -0.2867
    142  CB        77.0310   18.7430   10.4150 C.3   239  ASP239      0.1410
    143  CG        75.5970   19.1920   10.6060 C.2   239  ASP239      0.3668
    144  OD1       75.2830   19.9050   11.5880 O.co2 239  ASP239     -0.2456
    145  OD2       74.7710   18.8170    9.7610 O.co2 239  ASP239     -0.2456
@<TRIPOS>BOND
     1   127   126    2
     2   126   125    1
     3    43    45   ar
     4    43    41   ar
     5    45    44   ar
     6   125   124    1
     7   125   128    1
     8    41    40    1
     9    41    42   ar
    10    44    42   ar
    11   128   129    1
    12    40    37    1
    13   134   136   ar
    14   134   131   ar
    15   136   137   ar
    16   129   131   ar
    17   129   130   ar
    18    39    38    2
    19    20    19    2
    20   131   133   ar
    21    37    38    1
    22    37    36    1
    23    79    78    2
    24    38    46   am
    25    36    28   am
    26    16    14    1
    27    21    22    1
    28    21    18    1
    29    46    47    1
    30   130   132   ar
    31    19    18    1
    32    19    26   am
    33    48    47    1
    34    48    49    2
    35    28    27    1
    36    28    29    2
    37   137   135   ar
    38    47    50    1
    39    27    26    1
    40    27    30    1
    41   133   135   ar
    42   133   132   ar
    43    78    77    1
    44    22    23    1
    45    17    18    1
    46    17    11   am
    47    33    35   ar
    48    33    31   ar
    49    35    34   ar
    50     4     3    2
    51    14    15    1
    52    14    13    1
    53    13    10    1
    54    31    30    1
    55    31    32   ar
    56    10    11    1
    57    10     9    1
    58    77    80    1
    59    77    76    1
    60    34    32   ar
    61    11    12    2
    62    80    81    1
    63    50    51    1
    64    23    25   ar
    65    23    24   ar
    66     3     9   am
    67     3     2    1
    68   119   118    2
    69    81    82   ar
    70    81    83   ar
    71    52    51   ar
    72     1     2    1
    73    51    53   ar
    74    82    84   ar
    75   118   117    1
    76     2     5    1
    77    71    70    2
    78    83    86   ar
    79    83    85   ar
    80    86    88   ar
    81    84    85   ar
    82     5     6    1
    83    85    87   ar
    84    88    89   ar
    85   145   143   ar
    86    70    69    1
    87   117   116    1
    88   117   120    1
    89     8     6   ar
    90     6     7   ar
    91   138   139    1
    92    74    73   ar
    93    87    89   ar
    94   121   122    1
    95   121   120    1
    96   121   123    1
    97   116   109   am
    98    69    72    1
    99    69    68    1
   100   142   143    1
   101   142   139    1
   102   143   144   ar
   103    72    73    1
   104   139   140    1
   105   140   141    2
   106    73    75   ar
   107   107   108    1
   108   109   108    1
   109   109   110    2
   110   108   111    1
   111   115   113   am
   112   113   114    2
   113   113   112    1
   114   111   112    1
   115   101   100    2
   116   100    99    1
   117    97    95    1
   118    99    98    1
   119    99   102    1
   120    54    55    1
   121    67    66    2
   122    57    56    2
   123    95    96    1
   124    95    94    1
   125    66    65    1
   126   102   103    1
   127    55    56    1
   128    55    58    1
   129    56    64   am
   130   104   103    1
   131   104   105    1
   132    58    59    1
   133   106   105    1
   134    94    91    1
   135    64    65    1
   136    59    61   ar
   137    59    60   ar
   138    61    63   ar
   139    91    92    1
   140    91    90    1
   141    92    93    2
   142    60    62   ar
   143    63    62   ar
