@<TRIPOS>MOLECULE
tmp/2hbmA00.pdb
 127 123 0 0 0
SMALL
GASTEIGER

@<TRIPOS>ATOM
      1  N         79.3090   13.5330    8.0900 N.3   112  ASP112     -0.1225
      2  CA        77.9180   13.6290    8.5240 C.3   112  ASP112      0.1805
      3  C         76.9950   13.3160    7.3580 C.2   112  ASP112      0.2598
      4  O         77.4200   13.3270    6.2040 O.2   112  ASP112     -0.2718
      5  CB        77.6190   15.0200    9.0690 C.3   112  ASP112      0.1424
      6  CG        76.2760   15.0950    9.7400 C.2   112  ASP112      0.3668
      7  OD1       75.8090   14.0650   10.2720 O.co2 112  ASP112     -0.2456
      8  OD2       75.6850   16.1890    9.7460 O.co2 112  ASP112     -0.2456
      9  N         75.7350   13.0230    7.6630 N.am  113  LEU113     -0.1966
     10  CA        74.7440   12.6960    6.6350 C.3   113  LEU113      0.1728
     11  C         73.3740   13.3010    6.9470 C.2   113  LEU113      0.2616
     12  O         73.0460   13.5930    8.1070 O.2   113  LEU113     -0.2715
     13  CB        74.5720   11.1760    6.5350 C.3   113  LEU113      0.0311
     14  CG        75.7760   10.2290    6.4240 C.3   113  LEU113      0.0022
     15  CD1       75.2820    8.7900    6.4630 C.3   113  LEU113      0.0001
     16  CD2       76.5440   10.4850    5.1450 C.3   113  LEU113      0.0001
     17  N         72.5770   13.4840    5.9010 N.am  114  GLU114     -0.1963
     18  CA        71.2150   13.9920    6.0410 C.3   114  GLU114      0.1733
     19  C         70.3400   12.8930    5.4250 C.2   114  GLU114      0.2616
     20  O         70.6240   12.3820    4.3330 O.2   114  GLU114     -0.2715
     21  CB        71.0530   15.3330    5.3210 C.3   114  GLU114      0.0429
     22  CG        71.9400   16.4550    5.8800 C.3   114  GLU114      0.1163
     23  CD        71.8740   16.5880    7.4030 C.2   114  GLU114      0.3649
     24  OE1       70.7540   16.5790    7.9660 O.co2 114  GLU114     -0.2457
     25  OE2       72.9490   16.7200    8.0310 O.co2 114  GLU114     -0.2457
     26  N         69.2760   12.5320    6.1300 N.am  115  HIS115     -0.1973
     27  CA        68.4200   11.4270    5.7260 C.3   115  HIS115      0.1656
     28  C         66.9480   11.8000    5.5470 C.2   115  HIS115      0.2291
     29  O         66.4440   12.6820    6.2310 O.2   115  HIS115     -0.2864
     30  CB        68.6050   10.3410    6.8020 C.3   115  HIS115      0.0771
     31  CG        67.8620    9.0650    6.5550 C.ar  115  HIS115      0.0820
     32  ND1       66.6210    8.8100    7.1000 N.ar  115  HIS115     -0.2267
     33  CD2       68.2210    7.9390    5.8930 C.ar  115  HIS115      0.1154
     34  CE1       66.2530    7.5820    6.7910 C.ar  115  HIS115      0.1986
     35  NE2       67.2060    7.0310    6.0590 N.ar  115  HIS115     -0.2212
     36  N         62.8840   10.3270    5.3740 N.3   117  ASP117     -0.1239
     37  CA        62.0370    9.1870    5.7140 C.3   117  ASP117      0.1674
     38  C         60.5370    9.4630    5.6260 C.2   117  ASP117      0.2266
     39  O         59.7670    8.9260    6.4230 O.2   117  ASP117     -0.2867
     40  CB        62.3420    8.7390    7.1330 C.3   117  ASP117      0.1410
     41  CG        61.8840    9.7530    8.1590 C.2   117  ASP117      0.3668
     42  OD1       62.2950   10.9250    8.0620 O.co2 117  ASP117     -0.2456
     43  OD2       61.1090    9.3890    9.0620 O.co2 117  ASP117     -0.2456
     44  N         79.5600   12.5740   14.8490 N.3   165  HIS165     -0.1226
     45  CA        79.0000   12.8570   16.1490 C.3   165  HIS165      0.1752
     46  C         77.7240   12.0130   16.3010 C.2   165  HIS165      0.2596
     47  O         76.7010   12.3000   15.6700 O.2   165  HIS165     -0.2718
     48  CB        78.6560   14.3290   16.3100 C.3   165  HIS165      0.0759
     49  CG        78.0730   14.6340   17.6470 C.ar  165  HIS165      0.0818
     50  ND1       78.8280   15.1040   18.6970 N.ar  165  HIS165     -0.2268
     51  CD2       76.8250   14.4480   18.1350 C.ar  165  HIS165      0.1154
     52  CE1       78.0700   15.1990   19.7750 C.ar  165  HIS165      0.1986
     53  NE2       76.8490   14.8060   19.4600 N.ar  165  HIS165     -0.2212
     54  N         77.7970   10.9780   17.1380 N.am  166  GLY166     -0.1957
     55  CA        76.6530   10.1080   17.3560 C.3   166  GLY166      0.1869
     56  C         76.2970    9.4170   16.0530 C.2   166  GLY166      0.2309
     57  O         75.1860    9.5630   15.5360 O.2   166  GLY166     -0.2863
     58  N         74.2110    6.6390   11.3310 N.3   170  ASP170     -0.1239
     59  CA        74.9690    6.9130   10.1180 C.3   170  ASP170      0.1674
     60  C         75.5690    5.6130    9.6300 C.2   170  ASP170      0.2266
     61  O         75.5300    5.3070    8.4420 O.2   170  ASP170     -0.2867
     62  CB        76.0870    7.9240   10.3900 C.3   170  ASP170      0.1410
     63  CG        75.5620    9.3020   10.7470 C.2   170  ASP170      0.3668
     64  OD1       74.7950    9.8720    9.9340 O.co2 170  ASP170     -0.2456
     65  OD2       75.9240    9.8160   11.8340 O.co2 170  ASP170     -0.2456
     66  N         72.6290    3.7040    8.0530 N.3   173  TRP173     -0.1241
     67  CA        72.3030    4.3030    6.7590 C.3   173  TRP173      0.1605
     68  C         73.4030    4.1030    5.7170 C.2   173  TRP173      0.2264
     69  O         73.1260    3.8320    4.5490 O.2   173  TRP173     -0.2867
     70  CB        72.0310    5.8090    6.8990 C.3   173  TRP173      0.0550
     71  CG        70.8960    6.1680    7.8040 C.ar  173  TRP173      0.0003
     72  CD1       69.7640    5.4390    8.0300 C.ar  173  TRP173      0.0946
     73  CD2       70.7510    7.3760    8.5650 C.ar  173  TRP173      0.0152
     74  NE1       68.9230    6.1130    8.8810 N.ar  173  TRP173     -0.2442
     75  CE2       69.5030    7.3060    9.2260 C.ar  173  TRP173      0.0810
     76  CE3       71.5530    8.5120    8.7520 C.ar  173  TRP173      0.0012
     77  CZ2       69.0370    8.3310   10.0620 C.ar  173  TRP173      0.0191
     78  CZ3       71.0870    9.5310    9.5860 C.ar  173  TRP173      0.0001
     79  CH2       69.8400    9.4290   10.2270 C.ar  173  TRP173      0.0015
     80  N         75.6600   17.7010   19.3040 N.3   202  LEU202     -0.1245
     81  CA        76.5250   18.4530   18.4140 C.3   202  LEU202      0.1561
     82  C         76.2340   19.9500   18.5890 C.2   202  LEU202      0.2260
     83  O         77.1470   20.7680   18.6540 O.2   202  LEU202     -0.2867
     84  CB        76.2770   18.0200   16.9700 C.3   202  LEU202      0.0270
     85  CG        76.9030   18.8190   15.8340 C.3   202  LEU202      0.0019
     86  CD1       78.4220   18.7900   15.9510 C.3   202  LEU202      0.0001
     87  CD2       76.4300   18.2290   14.5050 C.3   202  LEU202      0.0001
     88  N         67.4020   23.6140   14.6570 N.3   216  LYS216     -0.1245
     89  CA        66.7300   22.3170   14.5500 C.3   216  LYS216      0.1561
     90  C         65.7150   22.3610   13.4150 C.2   216  LYS216      0.2260
     91  O         65.0860   21.3550   13.0840 O.2   216  LYS216     -0.2867
     92  CB        66.0060   21.9880   15.8640 C.3   216  LYS216      0.0271
     93  CG        66.7180   20.9840   16.7680 C.3   216  LYS216      0.0035
     94  CD        66.6820   19.5790   16.1750 C.3   216  LYS216      0.0206
     95  CE        67.1830   18.5380   17.1670 C.3   216  LYS216      0.1093
     96  NZ        67.0200   17.1530   16.6460 N.3   216  LYS216     -0.1314
     97  N         65.8610   19.5530   10.6760 N.3   219  GLN219     -0.1245
     98  CA        65.7970   18.1420   11.0400 C.3   219  GLN219      0.1566
     99  C         64.3690   17.6760   10.7820 C.2   219  GLN219      0.2260
    100  O         63.9270   16.6340   11.2650 O.2   219  GLN219     -0.2867
    101  CB        66.1940   17.9450   12.5090 C.3   219  GLN219      0.0367
    102  CG        67.6960   17.7120   12.7110 C.3   219  GLN219      0.0905
    103  CD        68.5530   18.8080   12.0980 C.2   219  GLN219      0.2608
    104  OE1       68.6590   19.9100   12.6390 O.2   219  GLN219     -0.2717
    105  NE2       69.1580   18.5110   10.9550 N.am  219  GLN219     -0.0878
    106  N         65.5250   17.1030    2.7440 N.3   223  TRP223     -0.1241
    107  CA        66.8490   17.0360    2.1530 C.3   223  TRP223      0.1605
    108  C         66.9150   16.4450    0.7550 C.2   223  TRP223      0.2264
    109  O         68.0010   16.2120    0.2250 O.2   223  TRP223     -0.2867
    110  CB        67.7870   16.2680    3.0870 C.3   223  TRP223      0.0550
    111  CG        68.0540   17.0130    4.3660 C.ar  223  TRP223      0.0003
    112  CD1       67.4080   16.8650    5.5640 C.ar  223  TRP223      0.0946
    113  CD2       68.9830   18.0860    4.5410 C.ar  223  TRP223      0.0152
    114  NE1       67.8760   17.7810    6.4720 N.ar  223  TRP223     -0.2442
    115  CE2       68.8450   18.5450    5.8700 C.ar  223  TRP223      0.0810
    116  CE3       69.9180   18.7060    3.7020 C.ar  223  TRP223      0.0012
    117  CZ2       69.6110   19.6000    6.3790 C.ar  223  TRP223      0.0191
    118  CZ3       70.6760   19.7480    4.2050 C.ar  223  TRP223      0.0001
    119  CH2       70.5180   20.1860    5.5350 C.ar  223  TRP223      0.0015
    120  N         77.8280   21.1340    9.9230 N.3   239  ASP239     -0.1239
    121  CA        77.8760   19.9010   10.6790 C.3   239  ASP239      0.1674
    122  C         79.2090   19.1990   10.6760 C.2   239  ASP239      0.2266
    123  O         79.4750   18.3750   11.5480 O.2   239  ASP239     -0.2867
    124  CB        76.7810   18.9440   10.2160 C.3   239  ASP239      0.1410
    125  CG        75.3960   19.3320   10.7440 C.2   239  ASP239      0.3668
    126  OD1       75.2940   20.2020   11.6540 O.co2 239  ASP239     -0.2456
    127  OD2       74.4070   18.7470   10.2450 O.co2 239  ASP239     -0.2456
@<TRIPOS>BOND
     1   109   108    2
     2   108   107    1
     3   107   106    1
     4   107   110    1
     5   110   111    1
     6   116   118   ar
     7   116   113   ar
     8   118   119   ar
     9    20    19    2
    10   111   113   ar
    11   111   112   ar
    12   113   115   ar
    13    69    68    2
    14    16    14    1
    15    21    22    1
    16    21    18    1
    17    36    37    1
    18    19    18    1
    19    19    26   am
    20   119   117   ar
    21    28    27    1
    22    28    29    2
    23   112   114   ar
    24    38    37    1
    25    38    39    2
    26    37    40    1
    27    68    67    1
    28    27    26    1
    29    27    30    1
    30   115   117   ar
    31   115   114   ar
    32    22    23    1
    33    33    35   ar
    34    33    31   ar
    35    17    18    1
    36    17    11   am
    37    35    34   ar
    38     4     3    2
    39    14    15    1
    40    14    13    1
    41    13    10    1
    42    31    30    1
    43    31    32   ar
    44    10    11    1
    45    10     9    1
    46    67    70    1
    47    67    66    1
    48    34    32   ar
    49    70    71    1
    50    11    12    2
    51    40    41    1
    52     3     9   am
    53     3     2    1
    54    23    24   ar
    55    23    25   ar
    56    71    72   ar
    57    71    73   ar
    58    72    74   ar
    59    42    41   ar
    60     1     2    1
    61    41    43   ar
    62    61    60    2
    63     2     5    1
    64    73    76   ar
    65    73    75   ar
    66    76    78   ar
    67    74    75   ar
    68     5     6    1
    69    75    77   ar
    70    78    79   ar
    71    60    59    1
    72     6     8   ar
    73     6     7   ar
    74   120   121    1
    75    64    63   ar
    76    77    79   ar
    77    59    62    1
    78    59    58    1
    79   124   121    1
    80   124   125    1
    81   127   125   ar
    82    62    63    1
    83   122   121    1
    84   122   123    2
    85    97    98    1
    86   125   126   ar
    87    63    65   ar
    88    99    98    1
    89    99   100    2
    90   105   103   am
    91    98   101    1
    92   103   104    2
    93   103   102    1
    94   101   102    1
    95    91    90    2
    96    90    89    1
    97    87    85    1
    98    89    88    1
    99    89    92    1
   100    44    45    1
   101    57    56    2
   102    47    46    2
   103    85    86    1
   104    85    84    1
   105    92    93    1
   106    56    55    1
   107    45    46    1
   108    45    48    1
   109    94    93    1
   110    94    95    1
   111    46    54   am
   112    48    49    1
   113    96    95    1
   114    84    81    1
   115    54    55    1
   116    49    51   ar
   117    49    50   ar
   118    51    53   ar
   119    81    82    1
   120    81    80    1
   121    82    83    2
   122    50    52   ar
   123    53    52   ar
