@<TRIPOS>MOLECULE
tmp/2hboA00.pdb
 104 102 0 0 0
SMALL
GASTEIGER

@<TRIPOS>ATOM
      1  N         11.2960   -4.8700   -3.0700 N.3    11  TRP11      -0.1241
      2  CA        11.5750   -3.4350   -3.0130 C.3    11  TRP11       0.1605
      3  C         11.1880   -2.8580   -1.6540 C.2    11  TRP11       0.2264
      4  O         10.3300   -3.3850   -0.9440 O.2    11  TRP11      -0.2867
      5  CB        10.8330   -2.6820   -4.1030 C.3    11  TRP11       0.0550
      6  CG        11.1540   -3.1250   -5.4630 C.ar   11  TRP11       0.0003
      7  CD1       12.2160   -2.7340   -6.2240 C.ar   11  TRP11       0.0946
      8  CD2       10.4040   -4.0380   -6.2540 C.ar   11  TRP11       0.0152
      9  NE1       12.1640   -3.3450   -7.4550 N.ar   11  TRP11      -0.2442
     10  CE2       11.0620   -4.1540   -7.4960 C.ar   11  TRP11       0.0810
     11  CE3        9.2360   -4.7710   -6.0370 C.ar   11  TRP11       0.0012
     12  CZ2       10.5970   -4.9780   -8.5130 C.ar   11  TRP11       0.0191
     13  CZ3        8.7630   -5.5780   -7.0520 C.ar   11  TRP11       0.0001
     14  CH2        9.4550   -5.6870   -8.2730 C.ar   11  TRP11       0.0015
     15  N          4.9810   -3.9890  -18.6590 N.3    57  ASP57      -0.1239
     16  CA         6.0470   -2.9990  -18.7540 C.3    57  ASP57       0.1674
     17  C          7.3290   -3.5390  -18.0730 C.2    57  ASP57       0.2266
     18  O          8.4040   -3.5820  -18.6920 O.2    57  ASP57      -0.2867
     19  CB         5.6060   -1.6830  -18.0740 C.3    57  ASP57       0.1410
     20  CG         6.5940   -0.5690  -18.3170 C.2    57  ASP57       0.3668
     21  OD1        6.8800   -0.2810  -19.4930 O.co2  57  ASP57      -0.2456
     22  OD2        7.1530   -0.0440  -17.3560 O.co2  57  ASP57      -0.2456
     23  N         17.4820   -4.9850  -18.6670 N.3    64  SER64      -0.1217
     24  CA        18.2140   -5.1420  -17.4250 C.3    64  SER64       0.1889
     25  C         19.1750   -6.3370  -17.4630 C.2    64  SER64       0.2288
     26  O         20.3590   -6.2440  -17.0610 O.2    64  SER64      -0.2866
     27  CB        17.2530   -5.2850  -16.2550 C.3    64  SER64       0.2089
     28  OG        16.4690   -4.1310  -16.1150 O.3    64  SER64      -0.2183
     29  N         21.6530   -1.7070  -17.8350 N.3    69  TYR69      -0.1227
     30  CA        21.4280   -0.2890  -18.0120 C.3    69  TYR69       0.1736
     31  C         20.1050    0.0940  -17.3760 C.2    69  TYR69       0.2596
     32  O         19.1390   -0.7070  -17.3390 O.2    69  TYR69      -0.2718
     33  CB        21.3570    0.1050  -19.5010 C.3    69  TYR69       0.0548
     34  CG        22.5860   -0.1820  -20.3240 C.ar   69  TYR69      -0.0200
     35  CD1       23.8490   -0.3070  -19.7470 C.ar   69  TYR69      -0.0009
     36  CD2       22.4870   -0.3200  -21.7190 C.ar   69  TYR69      -0.0009
     37  CE1       24.9870   -0.5600  -20.5320 C.ar   69  TYR69       0.0417
     38  CE2       23.6290   -0.5630  -22.5140 C.ar   69  TYR69       0.0417
     39  CZ        24.8660   -0.6970  -21.9060 C.ar   69  TYR69       0.1957
     40  OH        25.9800   -0.9540  -22.6890 O.3    69  TYR69      -0.2866
     41  N         20.0560    1.3310  -16.8930 N.am   70  SER70      -0.1938
     42  CA        18.7910    1.9800  -16.6300 C.3    70  SER70       0.2055
     43  C         18.0930    2.1330  -17.9750 C.2    70  SER70       0.2643
     44  O         18.7510    2.2850  -19.0160 O.2    70  SER70      -0.2714
     45  CB        19.0010    3.3390  -15.9860 C.3    70  SER70       0.2130
     46  OG        19.8110    4.1480  -16.8100 O.3    70  SER70      -0.2179
     47  N         16.7690    2.0780  -17.9550 N.am   71  TRP71      -0.1959
     48  CA        15.9830    2.2560  -19.1780 C.3    71  TRP71       0.1771
     49  C         14.6290    2.8860  -18.8960 C.2    71  TRP71       0.2620
     50  O         14.1620    2.8700  -17.7640 O.2    71  TRP71      -0.2715
     51  CB        15.7460    0.9220  -19.8980 C.3    71  TRP71       0.0590
     52  CG        15.2320   -0.1760  -19.0130 C.ar   71  TRP71       0.0006
     53  CD1       15.9780   -1.1140  -18.3870 C.ar   71  TRP71       0.0946
     54  CD2       13.8620   -0.4510  -18.6640 C.ar   71  TRP71       0.0152
     55  NE1       15.1780   -1.9680  -17.6920 N.ar   71  TRP71      -0.2442
     56  CE2       13.8710   -1.5930  -17.8400 C.ar   71  TRP71       0.0810
     57  CE3       12.6220    0.1370  -18.9960 C.ar   71  TRP71       0.0012
     58  CZ2       12.6930   -2.1510  -17.3060 C.ar   71  TRP71       0.0191
     59  CZ3       11.4260   -0.4330  -18.4530 C.ar   71  TRP71       0.0001
     60  CH2       11.4910   -1.5560  -17.6280 C.ar   71  TRP71       0.0015
     61  N         13.9960    3.3440  -19.9680 N.am   72  VAL72      -0.1963
     62  CA        12.7390    4.0470  -19.9250 C.3    72  VAL72       0.1727
     63  C         11.8880    3.5130  -21.0820 C.2    72  VAL72       0.2616
     64  O         12.3890    3.2910  -22.1780 O.2    72  VAL72      -0.2715
     65  CB        12.9620    5.5830  -19.9720 C.3    72  VAL72       0.0290
     66  CG1       13.4070    6.0620  -21.3050 C.3    72  VAL72       0.0023
     67  CG2       11.7230    6.3710  -19.5040 C.3    72  VAL72       0.0023
     68  N         10.6230    3.2300  -20.8110 N.am   73  THR73      -0.1951
     69  CA         9.6350    2.9170  -21.8630 C.3    73  THR73       0.1897
     70  C          9.3660    4.0860  -22.8040 C.2    73  THR73       0.2313
     71  O          9.0700    5.1970  -22.3650 O.2    73  THR73      -0.2863
     72  CB         8.2870    2.4570  -21.2210 C.3    73  THR73       0.1794
     73  OG1        8.5810    1.6060  -20.1210 O.3    73  THR73      -0.2208
     74  CG2        7.4930    1.7070  -22.1830 C.3    73  THR73       0.0378
     75  N         19.4080    3.9270  -21.1600 N.3   125  LEU125     -0.1245
     76  CA        19.9000    5.2390  -20.8180 C.3   125  LEU125      0.1561
     77  C         21.3790    5.1200  -20.4580 C.2   125  LEU125      0.2260
     78  O         22.1980    5.5540  -21.2070 O.2   125  LEU125     -0.2867
     79  CB        19.1060    5.8280  -19.6600 C.3   125  LEU125      0.0270
     80  CG        17.6230    6.0970  -19.9360 C.3   125  LEU125      0.0019
     81  CD1       16.8760    6.3300  -18.6320 C.3   125  LEU125      0.0001
     82  CD2       17.4760    7.2830  -20.8180 C.3   125  LEU125      0.0001
     83  N         24.2840    1.1030  -14.9490 N.3   128  ARG128     -0.1245
     84  CA        24.0390    1.1860  -13.5070 C.3   128  ARG128      0.1563
     85  C         24.6570   -0.0380  -12.8290 C.2   128  ARG128      0.2260
     86  O         25.1800   -0.9290  -13.5010 O.2   128  ARG128     -0.2867
     87  CB        22.5500    1.2900  -13.2170 C.3   128  ARG128      0.0307
     88  CG        21.7410    0.1530  -13.8460 C.3   128  ARG128      0.0489
     89  CD        20.7230   -0.4030  -12.9070 C.3   128  ARG128      0.2205
     90  NE        19.8830   -1.3910  -13.5560 N.pl3 128  ARG128     -0.0865
     91  CZ        20.1150   -2.7020  -13.5710 C.cat 128  ARG128      0.5346
     92  NH1       21.1560   -3.2220  -12.9610 N.pl3 128  ARG128      0.1354
     93  NH2       19.2840   -3.5060  -14.2260 N.pl3 128  ARG128      0.1354
     94  N         22.8220   -6.1880  -10.9890 N.3   131  ARG131     -0.1245
     95  CA        22.0880   -6.9330   -9.9850 C.3   131  ARG131      0.1563
     96  C         22.3200   -8.4280  -10.2220 C.2   131  ARG131      0.2260
     97  O         22.5600   -8.8580  -11.3610 O.2   131  ARG131     -0.2867
     98  CB        20.5870   -6.5760  -10.0480 C.3   131  ARG131      0.0307
     99  CG        20.3120   -5.0690   -9.9890 C.3   131  ARG131      0.0489
    100  CD        18.8760   -4.7160   -9.5980 C.3   131  ARG131      0.2205
    101  NE        17.9860   -4.4450  -10.7450 N.pl3 131  ARG131     -0.0865
    102  CZ        17.6570   -3.2340  -11.2130 C.cat 131  ARG131      0.5346
    103  NH1       18.1440   -2.1070  -10.6840 N.pl3 131  ARG131      0.1354
    104  NH2       16.8270   -3.1500  -12.2450 N.pl3 131  ARG131      0.1354
@<TRIPOS>BOND
     1    70    71    2
     2    70    69    1
     3    40    39    1
     4    38    39   ar
     5    38    36   ar
     6    74    72    1
     7    64    63    2
     8    39    37   ar
     9    69    72    1
    10    69    68    1
    11    36    34   ar
    12    66    65    1
    13    72    73    1
    14    78    77    2
    15    75    76    1
    16    63    68   am
    17    63    62    1
    18    82    80    1
    19    76    77    1
    20    76    79    1
    21    37    35   ar
    22    34    35   ar
    23    34    33    1
    24    65    62    1
    25    65    67    1
    26    61    62    1
    27    61    49   am
    28    80    79    1
    29    80    81    1
    30    51    48    1
    31    51    52    1
    32    33    30    1
    33    21    20   ar
    34    48    49    1
    35    48    47    1
    36    44    43    2
    37    52    54   ar
    38    52    53   ar
    39    57    54   ar
    40    57    59   ar
    41    49    50    2
    42    16    15    1
    43    16    19    1
    44    16    17    1
    45    18    17    2
    46    23    24    1
    47    54    56   ar
    48    59    60   ar
    49    53    55   ar
    50    20    19    1
    51    20    22   ar
    52    30    29    1
    53    30    31    1
    54    43    47   am
    55    43    42    1
    56    56    55   ar
    57    56    58   ar
    58    60    58   ar
    59    25    24    1
    60    25    26    2
    61    24    27    1
    62    31    32    2
    63    31    41   am
    64    41    42    1
    65    46    45    1
    66    42    45    1
    67    27    28    1
    68    83    84    1
    69    93    91    1
    70    88    87    1
    71    88    89    1
    72    91    90    2
    73    91    92    1
    74    90    89    1
    75    84    87    1
    76    84    85    1
    77    86    85    2
    78   104   102    1
    79    97    96    2
    80   102   101    2
    81   102   103    1
    82    94    95    1
    83   101   100    1
    84    96    95    1
    85    98    99    1
    86    98    95    1
    87    99   100    1
    88    12    14   ar
    89    12    10   ar
    90    14    13   ar
    91    10     9   ar
    92    10     8   ar
    93     9     7   ar
    94    13    11   ar
    95     8    11   ar
    96     8     6   ar
    97     7     6   ar
    98     6     5    1
    99     5     2    1
   100     1     2    1
   101     2     3    1
   102     3     4    2
