@<TRIPOS>MOLECULE
tmp/2hbqB00.pdb
 87 87 0 0 0
SMALL
GASTEIGER

@<TRIPOS>ATOM
      1  N         38.3250   56.5440    9.2070 N.3    22  VAL22      -0.1231
      2  CA        37.5260   57.5820    8.5580 C.3    22  VAL22       0.1692
      3  C         38.3540   58.7450    8.0070 C.2    22  VAL22       0.2593
      4  O         39.4780   58.9970    8.4510 O.2    22  VAL22      -0.2718
      5  CB        36.4310   58.1450    9.5070 C.3    22  VAL22       0.0266
      6  CG1       35.4160   57.0620    9.8690 C.3    22  VAL22       0.0020
      7  CG2       37.0490   58.7640   10.7710 C.3    22  VAL22       0.0020
      8  N         37.7790   59.4360    7.0260 N.am   23  SER23      -0.1938
      9  CA        38.2920   60.7100    6.5420 C.3    23  SER23       0.2055
     10  C         37.1810   61.7420    6.6710 C.2    23  SER23       0.2643
     11  O         36.0080   61.4200    6.4720 O.2    23  SER23      -0.2714
     12  CB        38.7430   60.5910    5.0900 C.3    23  SER23       0.2130
     13  OG        39.8580   59.7240    4.9860 O.3    23  SER23      -0.2179
     14  N         37.5540   62.9760    6.9990 N.am   24  TRP24      -0.1959
     15  CA        36.5810   64.0130    7.3410 C.3    24  TRP24       0.1771
     16  C         36.3380   65.0280    6.2290 C.2    24  TRP24       0.2620
     17  O         37.2450   65.3610    5.4640 O.2    24  TRP24      -0.2715
     18  CB        37.0000   64.7210    8.6310 C.3    24  TRP24       0.0590
     19  CG        37.0340   63.7930    9.8030 C.ar   24  TRP24       0.0006
     20  CD1       38.1270   63.1510   10.3110 C.ar   24  TRP24       0.0946
     21  CD2       35.9200   63.3790   10.6010 C.ar   24  TRP24       0.0152
     22  NE1       37.7630   62.3720   11.3830 N.ar   24  TRP24      -0.2442
     23  CE2       36.4130   62.4920   11.5840 C.ar   24  TRP24       0.0810
     24  CE3       34.5470   63.6730   10.5920 C.ar   24  TRP24       0.0012
     25  CZ2       35.5880   61.8990   12.5460 C.ar   24  TRP24       0.0191
     26  CZ3       33.7270   63.0820   11.5490 C.ar   24  TRP24       0.0001
     27  CH2       34.2520   62.2050   12.5120 C.ar   24  TRP24       0.0015
     28  N         35.1010   65.5120    6.1580 N.am   25  ARG25      -0.1963
     29  CA        34.6940   66.5050    5.1700 C.3    25  ARG25       0.1729
     30  C         33.7550   67.5300    5.8090 C.2    25  ARG25       0.2616
     31  O         32.7060   67.1720    6.3480 O.2    25  ARG25      -0.2715
     32  CB        34.0260   65.8150    3.9730 C.3    25  ARG25       0.0348
     33  CG        33.4350   66.7550    2.9190 C.3    25  ARG25       0.0492
     34  CD        32.6450   66.0570    1.8070 C.3    25  ARG25       0.2205
     35  NE        32.0000   64.8190    2.2510 N.pl3  25  ARG25      -0.0865
     36  CZ        30.8330   64.7560    2.8900 C.cat  25  ARG25       0.5346
     37  NH1       30.1530   65.8620    3.1730 N.pl3  25  ARG25       0.1354
     38  NH2       30.3430   63.5770    3.2520 N.pl3  25  ARG25       0.1354
     39  N         34.1540   68.7990    5.7510 N.am   26  HIS26      -0.1960
     40  CA        33.3420   69.9090    6.2450 C.3    26  HIS26       0.1772
     41  C         32.2600   70.2690    5.2230 C.2    26  HIS26       0.2462
     42  O         32.5600   70.4240    4.0370 O.2    26  HIS26      -0.2730
     43  CB        34.2280   71.1250    6.5350 C.3    26  HIS26       0.0785
     44  CG        33.5870   72.1490    7.4210 C.ar   26  HIS26       0.0821
     45  ND1       32.5720   72.9770    6.9920 N.ar   26  HIS26      -0.2267
     46  CD2       33.8270   72.4870    8.7100 C.ar   26  HIS26       0.1154
     47  CE1       32.2080   73.7740    7.9810 C.ar   26  HIS26       0.1986
     48  NE2       32.9540   73.4970    9.0350 N.ar   26  HIS26      -0.2212
     49  N         31.0100   70.3940    5.6800 N.am   27  PRO27      -0.2727
     50  CA        29.8680   70.6980    4.8010 C.3    27  PRO27       0.1402
     51  C         30.0270   71.9380    3.9170 C.2    27  PRO27       0.2269
     52  O         29.4910   71.9470    2.8070 O.2    27  PRO27      -0.2865
     53  CB        28.7100   70.9090    5.7860 C.3    27  PRO27       0.0296
     54  CG        29.3560   71.0740    7.1230 C.3    27  PRO27       0.0237
     55  CD        30.5850   70.2270    7.0820 C.3    27  PRO27       0.0939
     56  N         36.5300   68.8330    2.0400 N.3    31  SER31      -0.1202
     57  CA        37.3130   67.7660    2.6610 C.3    31  SER31       0.2020
     58  C         38.6310   68.2950    3.2210 C.2    31  SER31       0.2618
     59  O         39.3530   69.0300    2.5420 O.2    31  SER31      -0.2717
     60  CB        37.5770   66.6420    1.6580 C.3    31  SER31       0.2103
     61  OG        36.3650   66.1000    1.1590 O.3    31  SER31      -0.2182
     62  N         38.9320   67.9170    4.4620 N.am   32  VAL32      -0.1979
     63  CA        40.1190   68.4010    5.1700 C.3    32  VAL32       0.1595
     64  C         41.4070   68.0280    4.4350 C.2    32  VAL32       0.2287
     65  O         42.2840   68.8730    4.2410 O.2    32  VAL32      -0.2864
     66  CB        40.1750   67.8730    6.6300 C.3    32  VAL32       0.0276
     67  CG1       41.2760   68.5720    7.4150 C.3    32  VAL32       0.0022
     68  CG2       38.8310   68.0610    7.3260 C.3    32  VAL32       0.0022
     69  N         42.8210   65.9730   16.7920 N.3    65  ASP65      -0.1239
     70  CA        41.7300   66.6500   17.4890 C.3    65  ASP65       0.1674
     71  C         40.5330   65.7010   17.5960 C.2    65  ASP65       0.2266
     72  O         40.7080   64.4790   17.6040 O.2    65  ASP65      -0.2867
     73  CB        41.3550   67.9570   16.7780 C.3    65  ASP65       0.1410
     74  CG        41.0520   67.7590   15.3030 C.2    65  ASP65       0.3668
     75  OD1       39.8780   67.5010   14.9670 O.co2  65  ASP65      -0.2456
     76  OD2       41.9240   67.8420   14.4100 O.co2  65  ASP65      -0.2456
     77  N         38.3780   65.2210   15.3420 N.3    67  ARG67      -0.1245
     78  CA        38.2240   64.6030   14.0300 C.3    67  ARG67       0.1563
     79  C         39.5930   64.3110   13.4210 C.2    67  ARG67       0.2260
     80  O         40.0950   65.0700   12.5890 O.2    67  ARG67      -0.2867
     81  CB        37.3990   65.5050   13.1120 C.3    67  ARG67       0.0307
     82  CG        35.9250   65.5490   13.4670 C.3    67  ARG67       0.0489
     83  CD        35.1580   66.6420   12.7630 C.3    67  ARG67       0.2205
     84  NE        33.7580   66.6810   13.1790 N.pl3  67  ARG67      -0.0865
     85  CZ        33.2780   67.4710   14.1320 C.cat  67  ARG67       0.5346
     86  NH1       34.0800   68.3020   14.7870 N.pl3  67  ARG67       0.1354
     87  NH2       31.9880   67.4300   14.4320 N.pl3  67  ARG67       0.1354
@<TRIPOS>BOND
     1    61    60    1
     2    60    57    1
     3    34    35    1
     4    34    33    1
     5    56    57    1
     6    35    36    2
     7    59    58    2
     8    57    58    1
     9    52    51    2
    10    36    37    1
    11    36    38    1
    12    33    32    1
    13    58    62   am
    14    51    50    1
    15    32    29    1
    16    42    41    2
    17    65    64    2
    18    64    63    1
    19    62    63    1
    20    50    49    1
    21    50    53    1
    22    13    12    1
    23    12     9    1
    24    63    66    1
    25    29    30    1
    26    29    28    1
    27    41    49   am
    28    41    40    1
    29    17    16    2
    30    49    55    1
    31    39    30   am
    32    39    40    1
    33    53    54    1
    34    30    31    2
    35    28    16   am
    36    16    15    1
    37    40    43    1
    38    11    10    2
    39    43    44    1
    40     9    10    1
    41     9     8    1
    42    66    68    1
    43    66    67    1
    44    10    14   am
    45    45    44   ar
    46    45    47   ar
    47    14    15    1
    48     8     3   am
    49    55    54    1
    50    15    18    1
    51    44    46   ar
    52    47    48   ar
    53     3     4    2
    54     3     2    1
    55     2     1    1
    56     2     5    1
    57    18    19    1
    58    46    48   ar
    59     5     6    1
    60     5     7    1
    61    19    20   ar
    62    19    21   ar
    63    20    22   ar
    64    24    21   ar
    65    24    26   ar
    66    21    23   ar
    67    22    23   ar
    68    26    27   ar
    69    23    25   ar
    70    27    25   ar
    71    80    79    2
    72    83    84    1
    73    83    82    1
    74    81    82    1
    75    81    78    1
    76    84    85    2
    77    79    78    1
    78    78    77    1
    79    85    87    1
    80    85    86    1
    81    76    74   ar
    82    75    74   ar
    83    74    73    1
    84    73    70    1
    85    69    70    1
    86    70    71    1
    87    71    72    2
