@<TRIPOS>MOLECULE
tmp/2hc0B00.pdb
 119 111 0 0 0
SMALL
GASTEIGER

@<TRIPOS>ATOM
      1  N         71.6490   18.2040   15.6930 N.3     8  ARG8       -0.1245
      2  CA        70.4440   18.9750   15.4050 C.3     8  ARG8        0.1563
      3  C         70.5850   20.4090   15.8620 C.2     8  ARG8        0.2260
      4  O         71.0370   20.6540   16.9750 O.2     8  ARG8       -0.2867
      5  CB        69.2500   18.2950   16.0960 C.3     8  ARG8        0.0307
      6  CG        68.8710   16.9910   15.4090 C.3     8  ARG8        0.0489
      7  CD        67.4350   16.5980   15.7930 C.3     8  ARG8        0.2205
      8  NE        67.1570   15.3620   15.0310 N.pl3   8  ARG8       -0.0865
      9  CZ        66.1100   14.6270   15.3050 C.cat   8  ARG8        0.5346
     10  NH1       65.2910   15.0510   16.2660 N.pl3   8  ARG8        0.1354
     11  NH2       65.9370   13.5210   14.5780 N.pl3   8  ARG8        0.1354
     12  N         63.4190   22.5930   16.8120 N.3    23  LEU23      -0.1245
     13  CA        64.4430   22.4270   15.7870 C.3    23  LEU23       0.1561
     14  C         64.3910   23.5360   14.7490 C.2    23  LEU23       0.2260
     15  O         63.3080   23.6980   14.1460 O.2    23  LEU23      -0.2867
     16  CB        64.1510   21.0720   15.1520 C.3    23  LEU23       0.0270
     17  CG        64.9990   20.5050   14.0470 C.3    23  LEU23       0.0019
     18  CD1       66.4780   20.3580   14.4100 C.3    23  LEU23       0.0001
     19  CD2       64.4170   19.1300   13.6540 C.3    23  LEU23       0.0001
     20  N         64.3040   24.4610   11.2570 N.3    25  ASP25      -0.1239
     21  CA        64.0410   23.4670   10.2020 C.3    25  ASP25       0.1674
     22  C         63.7750   24.1420    8.8710 C.2    25  ASP25       0.2266
     23  O         62.6260   24.4500    8.5610 O.2    25  ASP25      -0.2867
     24  CB        62.8530   22.5940   10.5880 C.3    25  ASP25       0.1410
     25  CG        62.6910   21.4350    9.6410 C.2    25  ASP25       0.3668
     26  OD1       63.3570   21.4200    8.5850 O.co2  25  ASP25      -0.2456
     27  OD2       61.8700   20.5470    9.9360 O.co2  25  ASP25      -0.2456
     28  N         63.7140   23.0530    5.9550 N.3    27  GLY27      -0.1210
     29  CA        62.8460   22.3200    5.0380 C.3    27  GLY27       0.1956
     30  C         61.3620   22.4860    5.3730 C.2    27  GLY27       0.2612
     31  O         60.4600   22.0470    4.6460 O.2    27  GLY27      -0.2717
     32  N         61.0000   23.0690    6.5100 N.am   28  ALA28      -0.1965
     33  CA        59.6180   23.2290    6.9450 C.3    28  ALA28       0.1728
     34  C         59.0880   24.5640    6.4390 C.2    28  ALA28       0.2616
     35  O         59.7030   25.6070    6.7370 O.2    28  ALA28      -0.2715
     36  CB        59.5780   23.1720    8.4630 C.3    28  ALA28       0.0334
     37  N         57.9750   24.6050    5.7040 N.am   29  ASP29      -0.1957
     38  CA        57.3940   25.8860    5.3320 C.3    29  ASP29       0.1840
     39  C         56.8500   26.6380    6.5540 C.2    29  ASP29       0.2622
     40  O         56.8950   27.8820    6.6390 O.2    29  ASP29      -0.2715
     41  CB        56.2240   25.6970    4.3630 C.3    29  ASP29       0.1450
     42  CG        56.5980   25.1780    2.9910 C.2    29  ASP29       0.3671
     43  OD1       57.7790   25.0680    2.5950 O.co2  29  ASP29      -0.2456
     44  OD2       55.5980   24.8670    2.2930 O.co2  29  ASP29      -0.2456
     45  N         56.2720   25.8510    7.4460 N.am   30  ASP30      -0.1971
     46  CA        55.4870   26.3260    8.5810 C.3    30  ASP30       0.1709
     47  C         56.1090   25.8310    9.8710 C.2    30  ASP30       0.2293
     48  O         56.9030   24.8950    9.8300 O.2    30  ASP30      -0.2864
     49  CB        54.0450   25.8010    8.4660 C.3    30  ASP30       0.1436
     50  CG        53.2960   26.6230    7.4230 C.2    30  ASP30       0.3671
     51  OD1       53.7470   27.7590    7.1650 O.co2  30  ASP30      -0.2456
     52  OD2       52.2730   26.1760    6.8780 O.co2  30  ASP30      -0.2456
     53  N         55.6350   24.0100   13.3960 N.3    32  VAL32      -0.1245
     54  CA        54.7200   23.0540   13.9860 C.3    32  VAL32       0.1561
     55  C         55.1920   22.6050   15.3520 C.2    32  VAL32       0.2260
     56  O         56.3050   22.0910   15.4230 O.2    32  VAL32      -0.2867
     57  CB        54.5750   21.8170   13.0670 C.3    32  VAL32       0.0252
     58  CG1       53.3210   21.0480   13.5070 C.3    32  VAL32       0.0019
     59  CG2       54.5160   22.1950   11.5910 C.3    32  VAL32       0.0019
     60  N         43.9260   23.0810    9.6280 N.3    45  LYS45      -0.1245
     61  CA        44.8470   23.0580    8.4960 C.3    45  LYS45       0.1561
     62  C         45.3530   21.6350    8.2790 C.2    45  LYS45       0.2260
     63  O         45.4570   20.8740    9.2470 O.2    45  LYS45      -0.2867
     64  CB        46.0290   23.9750    8.7200 C.3    45  LYS45       0.0271
     65  CG        47.0510   23.9700    7.6000 C.3    45  LYS45       0.0035
     66  CD        48.1260   25.0560    7.7440 C.3    45  LYS45       0.0206
     67  CE        49.2280   24.8400    6.6970 C.3    45  LYS45       0.1093
     68  NZ        49.8620   26.1120    6.2520 N.3    45  LYS45      -0.1314
     69  N         48.6460   19.6170    6.6820 N.3    47  ILE47      -0.1231
     70  CA        50.0080   19.7460    6.2100 C.3    47  ILE47       0.1692
     71  C         50.5390   18.3520    5.9280 C.2    47  ILE47       0.2593
     72  O         49.9570   17.3590    6.3980 O.2    47  ILE47      -0.2718
     73  CB        50.9500   20.4620    7.2150 C.3    47  ILE47       0.0266
     74  CG1       51.1030   19.6640    8.5080 C.3    47  ILE47       0.0019
     75  CG2       50.4440   21.8620    7.4280 C.3    47  ILE47       0.0020
     76  CD1       52.0970   20.1730    9.5160 C.3    47  ILE47       0.0001
     77  N         51.6330   18.3100    5.1520 N.am   48  GLY48      -0.1942
     78  CA        52.1480   17.0120    4.7390 C.3    48  GLY48       0.2014
     79  C         53.6090   16.9150    5.1420 C.2    48  GLY48       0.2639
     80  O         54.3310   17.8810    5.0500 O.2    48  GLY48      -0.2714
     81  N         53.9640   15.7040    5.5730 N.am   49  GLY49      -0.1939
     82  CA        55.3510   15.4810    5.9680 C.3    49  GLY49       0.2014
     83  C         55.7880   14.2280    5.2170 C.2    49  GLY49       0.2638
     84  O         55.0900   13.6970    4.3480 O.2    49  GLY49      -0.2714
     85  N         56.9750   13.7690    5.5490 N.am   50  ILE50      -0.1977
     86  CA        57.5620   12.6660    4.7920 C.3    50  ILE50       0.1596
     87  C         56.6590   11.4460    4.8310 C.2    50  ILE50       0.2287
     88  O         56.6150   10.6900    3.8670 O.2    50  ILE50      -0.2864
     89  CB        58.9460   12.3900    5.3800 C.3    50  ILE50       0.0276
     90  CG1       59.8110   11.4260    4.5650 C.3    50  ILE50       0.0022
     91  CG2       58.8160   11.8600    6.7900 C.3    50  ILE50       0.0022
     92  CD1       60.6670   10.5680    5.4930 C.3    50  ILE50       0.0001
     93  N         53.1320   16.3280   15.7300 N.3    80  THR80      -0.1204
     94  CA        54.4730   16.1620   15.1700 C.3    80  THR80       0.1979
     95  C         55.3920   15.4720   16.1460 C.2    80  THR80       0.2460
     96  O         55.4150   15.7700   17.3500 O.2    80  THR80      -0.2732
     97  CB        55.0500   17.5740   14.8630 C.3    80  THR80       0.1783
     98  OG1       56.3720   17.3380   14.4010 O.3    80  THR80      -0.2211
     99  CG2       55.0770   18.4290   16.1070 C.3    80  THR80       0.0376
    100  N         56.1950   14.5480   15.7090 N.am   81  PRO81      -0.2717
    101  CA        57.2200   13.9550   16.5760 C.3    81  PRO81       0.1535
    102  C         58.3120   14.9290   17.0190 C.2    81  PRO81       0.2595
    103  O         59.0300   14.5210   17.9480 O.2    81  PRO81      -0.2716
    104  CB        57.8360   12.8750   15.6760 C.3    81  PRO81       0.0310
    105  CG        56.7560   12.5910   14.6650 C.3    81  PRO81       0.0237
    106  CD        56.1420   13.9390   14.3600 C.3    81  PRO81       0.0939
    107  N         58.4460   16.1220   16.4520 N.am   82  ALA82      -0.2031
    108  CA        59.4700   17.0590   16.9130 C.3    82  ALA82       0.1283
    109  C         58.9980   18.5130   16.8600 C.3    82  ALA82       0.2036
    110  O         58.3480   18.8070   15.8450 O.3    82  ALA82      -0.2185
    111  CB        60.7310   16.9150   16.0490 C.3    82  ALA82       0.0262
    112  N         59.1400   21.9740   15.5040 N.3    84  ILE84      -0.1245
    113  CA        59.9870   22.5170   14.4240 C.3    84  ILE84       0.1561
    114  C         59.6590   23.9740   14.1460 C.2    84  ILE84       0.2260
    115  O         58.4990   24.3240   14.1040 O.2    84  ILE84      -0.2867
    116  CB        59.8520   21.6970   13.1350 C.3    84  ILE84       0.0252
    117  CG1       58.4620   21.5600   12.6090 C.3    84  ILE84       0.0019
    118  CG2       60.4830   20.3020   13.3840 C.3    84  ILE84       0.0019
    119  CD1       58.3520   20.6340   11.4100 C.3    84  ILE84       0.0001
@<TRIPOS>BOND
     1    44    42   ar
     2    43    42   ar
     3    42    41    1
     4    88    87    2
     5    84    83    2
     6    41    38    1
     7    90    89    1
     8    90    92    1
     9    31    30    2
    10    78    79    1
    11    78    77    1
    12    86    87    1
    13    86    89    1
    14    86    85    1
    15    29    30    1
    16    29    28    1
    17    80    79    2
    18    79    81   am
    19    77    71   am
    20    83    85   am
    21    83    82    1
    22    38    37    1
    23    38    39    1
    24    30    32   am
    25    89    91    1
    26    81    82    1
    27    37    34   am
    28    71    70    1
    29    71    72    2
    30    70    69    1
    31    70    73    1
    32    68    67    1
    33    34    35    2
    34    34    33    1
    35    32    33    1
    36    39    40    2
    37    39    45   am
    38    67    66    1
    39    52    50   ar
    40    33    36    1
    41    51    50   ar
    42    73    75    1
    43    73    74    1
    44    50    49    1
    45    45    46    1
    46    65    66    1
    47    65    64    1
    48    62    61    1
    49    62    63    2
    50    49    46    1
    51    61    64    1
    52    61    60    1
    53    74    76    1
    54    23    22    2
    55    46    47    1
    56    26    25   ar
    57    22    21    1
    58    25    27   ar
    59    25    24    1
    60    48    47    2
    61    21    24    1
    62    21    20    1
    63   119   117    1
    64    59    57    1
    65   117   116    1
    66    57    58    1
    67    57    54    1
    68   116   118    1
    69   116   113    1
    70    53    54    1
    71    19    17    1
    72    54    55    1
    73    17    18    1
    74    17    16    1
    75   115   114    2
    76    15    14    2
    77   114   113    1
    78   106   105    1
    79   106   100    1
    80    98    97    1
    81   113   112    1
    82    11     9    1
    83   105   104    1
    84    14    13    1
    85    97    94    1
    86    97    99    1
    87     8     9    2
    88     8     7    1
    89    16    13    1
    90    94    93    1
    91    94    95    1
    92     9    10    1
    93    55    56    2
    94     2     1    1
    95     2     3    1
    96     2     5    1
    97     6     7    1
    98     6     5    1
    99   104   101    1
   100   100    95   am
   101   100   101    1
   102    13    12    1
   103   110   109    1
   104     3     4    2
   105   111   108    1
   106    95    96    2
   107   107   108    1
   108   107   102   am
   109   101   102    1
   110   109   108    1
   111   102   103    2
