@<TRIPOS>MOLECULE
tmp/2hcbD00.pdb
 169 161 0 0 0
SMALL
GASTEIGER

@<TRIPOS>ATOM
      1  N        -28.0270   25.1250   83.8960 N.3     7  TYR7       -0.1241
      2  CA       -26.9920   24.8050   84.9060 C.3     7  TYR7        0.1605
      3  C        -26.8490   25.9050   85.9950 C.2     7  TYR7        0.2264
      4  O        -26.3380   26.9870   85.7110 O.2     7  TYR7       -0.2867
      5  CB       -25.6340   24.5880   84.2300 C.3     7  TYR7        0.0534
      6  CG       -25.6330   23.5040   83.1720 C.ar    7  TYR7       -0.0201
      7  CD1      -25.4490   22.1710   83.5200 C.ar    7  TYR7       -0.0009
      8  CD2      -25.8130   23.8090   81.8290 C.ar    7  TYR7       -0.0009
      9  CE1      -25.4470   21.1730   82.5620 C.ar    7  TYR7        0.0417
     10  CE2      -25.8120   22.8160   80.8610 C.ar    7  TYR7        0.0417
     11  CZ       -25.6300   21.5000   81.2360 C.ar    7  TYR7        0.1957
     12  OH       -25.6320   20.5090   80.2820 O.3     7  TYR7       -0.2866
     13  N        -28.7840   24.0360   91.5780 N.3    11  ASN11      -0.1225
     14  CA       -29.0740   23.0170   90.5430 C.3    11  ASN11       0.1785
     15  C        -28.1470   21.7830   90.5390 C.2    11  ASN11       0.2597
     16  O        -28.5060   20.7390   90.0070 O.2    11  ASN11      -0.2718
     17  CB       -28.9510   23.7120   89.1710 C.3    11  ASN11       0.1169
     18  CG       -30.1370   23.5370   88.2510 C.2    11  ASN11       0.2627
     19  OD1      -29.9500   23.2200   87.0790 O.2    11  ASN11      -0.2716
     20  ND2      -31.3510   23.7590   88.7500 N.am   11  ASN11      -0.0877
     21  N        -26.9580   21.9310   91.1330 N.am   12  PHE12      -0.1962
     22  CA       -25.8970   20.9110   91.1750 C.3    12  PHE12       0.1771
     23  C        -25.8970   20.2020   92.5220 C.2    12  PHE12       0.2619
     24  O        -25.9240   20.8480   93.5700 O.2    12  PHE12      -0.2715
     25  CB       -24.5470   21.6130   90.9580 C.3    12  PHE12       0.0574
     26  CG       -23.3100   20.7540   90.8550 C.ar   12  PHE12      -0.0200
     27  CD1      -22.8130   20.3880   89.6060 C.ar   12  PHE12      -0.0042
     28  CD2      -22.6240   20.3520   91.9900 C.ar   12  PHE12      -0.0042
     29  CE1      -21.6610   19.6150   89.4980 C.ar   12  PHE12      -0.0003
     30  CE2      -21.4720   19.5760   91.8890 C.ar   12  PHE12      -0.0003
     31  CZ       -20.9880   19.2110   90.6490 C.ar   12  PHE12      -0.0000
     32  N        -25.8720   18.8670   92.5160 N.am   13  ILE13      -0.1977
     33  CA       -25.9530   18.0910   93.7690 C.3    13  ILE13       0.1596
     34  C        -24.5800   17.8220   94.3870 C.2    13  ILE13       0.2287
     35  O        -23.6590   17.3890   93.6990 O.2    13  ILE13      -0.2864
     36  CB       -26.7410   16.7640   93.5850 C.3    13  ILE13       0.0276
     37  CG1      -28.2470   17.0350   93.4970 C.3    13  ILE13       0.0022
     38  CG2      -26.4480   15.8190   94.7300 C.3    13  ILE13       0.0022
     39  CD1      -28.8250   17.7500   94.7080 C.3    13  ILE13       0.0001
     40  N        -18.0560   15.0900   94.9060 N.3    18  ASN18      -0.1240
     41  CA       -17.9910   16.3560   94.1900 C.3    18  ASN18       0.1653
     42  C        -18.1280   17.5810   95.1020 C.2    18  ASN18       0.2266
     43  O        -18.5500   18.6500   94.6550 O.2    18  ASN18      -0.2867
     44  CB       -19.0160   16.4000   93.0490 C.3    18  ASN18       0.1155
     45  CG       -20.4540   16.3430   93.5380 C.2    18  ASN18       0.2627
     46  OD1      -21.3760   16.6530   92.7900 O.2    18  ASN18      -0.2716
     47  ND2      -20.6520   15.9290   94.7850 N.am   18  ASN18      -0.0877
     48  N        -13.5110   11.4400   86.0970 N.3    44  SER44      -0.1202
     49  CA       -14.2060   10.4890   85.2030 C.3    44  SER44       0.2020
     50  C        -15.1690   11.1740   84.2430 C.2    44  SER44       0.2619
     51  O        -15.6530   12.2770   84.5100 O.2    44  SER44      -0.2717
     52  CB       -14.9770    9.4520   86.0280 C.3    44  SER44       0.2103
     53  OG       -14.3620    9.2130   87.2880 O.3    44  SER44      -0.2182
     54  N        -15.4460   10.5280   83.1200 N.am   45  VAL45      -0.1965
     55  CA       -16.3850   11.0930   82.1590 C.3    45  VAL45       0.1727
     56  C        -17.8120   10.9880   82.7040 C.2    45  VAL45       0.2617
     57  O        -18.1900    9.9590   83.2770 O.2    45  VAL45      -0.2715
     58  CB       -16.2580   10.4250   80.7710 C.3    45  VAL45       0.0290
     59  CG1      -17.2210   11.0670   79.7680 C.3    45  VAL45       0.0023
     60  CG2      -14.8020   10.5050   80.2700 C.3    45  VAL45       0.0023
     61  N        -18.5760   12.0750   82.5700 N.am   46  GLY46      -0.1940
     62  CA       -19.9090   12.1880   83.1800 C.3    46  GLY46       0.2014
     63  C        -19.8700   12.4910   84.6710 C.2    46  GLY46       0.2640
     64  O        -20.6900   11.9930   85.4390 O.2    46  GLY46      -0.2714
     65  N        -18.9180   13.3220   85.0720 N.am   47  THR47      -0.1936
     66  CA       -18.6760   13.6190   86.4760 C.3    47  THR47       0.2028
     67  C        -19.4320   14.8650   86.8960 C.2    47  THR47       0.2643
     68  O        -19.7510   15.0520   88.0800 O.2    47  THR47      -0.2714
     69  CB       -17.1850   13.8470   86.7260 C.3    47  THR47       0.1808
     70  OG1      -16.5920   12.6380   87.2070 O.3    47  THR47      -0.2208
     71  CG2      -16.9760   14.9370   87.7430 C.3    47  THR47       0.0379
     72  N        -19.7000   15.7240   85.9170 N.am   48  GLY48      -0.1939
     73  CA       -20.3920   16.9750   86.1590 C.3    48  GLY48       0.2014
     74  C        -19.4910   18.1600   85.9410 C.2    48  GLY48       0.2639
     75  O        -19.8440   19.2740   86.3050 O.2    48  GLY48      -0.2714
     76  N        -18.3250   17.9240   85.3490 N.am   49  LYS49      -0.1963
     77  CA       -17.3790   19.0070   85.0880 C.3    49  LYS49       0.1728
     78  C        -18.0870   20.1110   84.3070 C.2    49  LYS49       0.2617
     79  O        -18.1420   21.2690   84.7540 O.2    49  LYS49      -0.2715
     80  CB       -16.1450   18.5120   84.3270 C.3    49  LYS49       0.0311
     81  CG       -15.6910   17.1050   84.6990 C.3    49  LYS49       0.0038
     82  CD       -14.4130   16.6930   83.9720 C.3    49  LYS49       0.0206
     83  CE       -14.3100   17.3140   82.5700 C.3    49  LYS49       0.1093
     84  NZ       -15.4530   16.9880   81.6500 N.3    49  LYS49      -0.1314
     85  N        -18.6780   19.7430   83.1710 N.am   50  THR50      -0.1937
     86  CA       -19.3790   20.7160   82.3360 C.3    50  THR50       0.2028
     87  C        -20.4330   21.4770   83.1480 C.2    50  THR50       0.2642
     88  O        -20.5080   22.7060   83.0890 O.2    50  THR50      -0.2714
     89  CB       -20.0040   20.0670   81.0740 C.3    50  THR50       0.1808
     90  OG1      -19.0300   19.2410   80.4160 O.3    50  THR50      -0.2208
     91  CG2      -20.4860   21.1460   80.1010 C.3    50  THR50       0.0379
     92  N        -21.2030   20.7460   83.9460 N.am   51  HIS51      -0.1973
     93  CA       -22.1990   21.3700   84.8130 C.3    51  HIS51       0.1656
     94  C        -21.5950   22.5390   85.5690 C.2    51  HIS51       0.2291
     95  O        -22.0610   23.6740   85.4630 O.2    51  HIS51      -0.2864
     96  CB       -22.7770   20.3600   85.8200 C.3    51  HIS51       0.0771
     97  CG       -23.9880   20.8640   86.5420 C.ar   51  HIS51       0.0820
     98  ND1      -25.2160   20.2440   86.4550 N.ar   51  HIS51      -0.2267
     99  CD2      -24.1730   21.9580   87.3190 C.ar   51  HIS51       0.1154
    100  CE1      -26.1010   20.9240   87.1630 C.ar   51  HIS51       0.1986
    101  NE2      -25.4930   21.9700   87.6960 N.ar   51  HIS51      -0.2212
    102  N        -12.9520   20.5150   78.8430 N.3   105  ASP105     -0.1239
    103  CA       -12.3490   19.3970   78.1020 C.3   105  ASP105      0.1674
    104  C        -10.9690   19.7180   77.5320 C.2   105  ASP105      0.2266
    105  O        -10.7250   19.5870   76.3300 O.2   105  ASP105     -0.2867
    106  CB       -13.3020   18.8600   77.0230 C.3   105  ASP105      0.1410
    107  CG       -14.4280   18.0010   77.6070 C.2   105  ASP105      0.3668
    108  OD1      -15.4590   17.8310   76.9230 O.co2 105  ASP105     -0.2456
    109  OD2      -14.2910   17.4950   78.7490 O.co2 105  ASP105     -0.2456
    110  N        -10.4350   15.4250   81.5240 N.3   138  ASP138     -0.1239
    111  CA       -10.6560   13.9810   81.7290 C.3   138  ASP138      0.1674
    112  C         -9.5900   13.3980   82.6390 C.2   138  ASP138      0.2266
    113  O         -9.8810   12.5670   83.5030 O.2   138  ASP138     -0.2867
    114  CB       -10.6120   13.2230   80.3960 C.3   138  ASP138      0.1410
    115  CG       -11.8830   13.3720   79.5930 C.2   138  ASP138      0.3668
    116  OD1      -12.9460   13.6400   80.1990 O.co2 138  ASP138     -0.2456
    117  OD2      -11.8170   13.2160   78.3500 O.co2 138  ASP138     -0.2456
    118  N        -16.7610   10.0370   91.9160 N.3   165  LEU165     -0.1245
    119  CA       -18.0830    9.7490   92.4450 C.3   165  LEU165      0.1561
    120  C        -18.0770    8.4040   93.1590 C.2   165  LEU165      0.2260
    121  O        -17.8540    7.3640   92.5390 O.2   165  LEU165     -0.2867
    122  CB       -19.1330    9.7790   91.3360 C.3   165  LEU165      0.0270
    123  CG       -19.3930   11.1590   90.7410 C.3   165  LEU165      0.0019
    124  CD1      -18.5010   11.3760   89.5430 C.3   165  LEU165      0.0001
    125  CD2      -20.8410   11.3010   90.3500 C.3   165  LEU165      0.0001
    126  N        -27.2750   12.0420   94.8140 N.3   173  ILE173     -0.1245
    127  CA       -27.6420   12.4250   93.4580 C.3   173  ILE173      0.1561
    128  C        -28.9320   11.7130   93.0100 C.2   173  ILE173      0.2260
    129  O        -29.9370   12.3740   92.7220 O.2   173  ILE173     -0.2867
    130  CB       -26.4830   12.1970   92.4470 C.3   173  ILE173      0.0252
    131  CG1      -25.2990   13.1210   92.7510 C.3   173  ILE173      0.0019
    132  CG2      -26.9490   12.4840   91.0320 C.3   173  ILE173      0.0019
    133  CD1      -24.7800   13.1420   94.1600 C.3   173  ILE173      0.0001
    134  N        -32.4970   13.5440   92.0740 N.3   177  LYS177     -0.1245
    135  CA       -32.9750   13.5110   90.6990 C.3   177  LYS177      0.1561
    136  C        -34.3910   12.9550   90.6570 C.2   177  LYS177      0.2260
    137  O        -35.2810   13.5500   90.0510 O.2   177  LYS177     -0.2867
    138  CB       -32.0320   12.6990   89.8070 C.3   177  LYS177      0.0271
    139  CG       -30.7770   13.4630   89.3750 C.3   177  LYS177      0.0035
    140  CD       -31.1090   14.5900   88.3910 C.3   177  LYS177      0.0206
    141  CE       -30.0960   15.7240   88.4620 C.3   177  LYS177      0.1093
    142  NZ       -28.8330   15.3920   87.7630 N.3   177  LYS177     -0.1314
    143  N        -23.1580   10.1840   86.1070 N.3   200  VAL200     -0.1231
    144  CA       -24.4200   10.8890   86.3230 C.3   200  VAL200      0.1692
    145  C        -25.3300   10.8560   85.0940 C.2   200  VAL200      0.2591
    146  O        -26.5520   10.8730   85.2340 O.2   200  VAL200     -0.2718
    147  CB       -24.1890   12.3410   86.7590 C.3   200  VAL200      0.0266
    148  CG1      -25.5000   12.9850   87.1700 C.3   200  VAL200      0.0020
    149  CG2      -23.1880   12.3960   87.9000 C.3   200  VAL200      0.0020
    150  N        -24.7320   10.7940   83.9010 N.am  201  ARG201     -0.1980
    151  CA       -25.4880   10.6620   82.6500 C.3   201  ARG201      0.1597
    152  C        -26.3410    9.3970   82.6260 C.2   201  ARG201      0.2287
    153  O        -27.4290    9.3820   82.0430 O.2   201  ARG201     -0.2864
    154  CB       -24.5490   10.6690   81.4470 C.3   201  ARG201      0.0334
    155  CG       -24.4670   11.9970   80.7310 C.3   201  ARG201      0.0492
    156  CD       -23.9150   11.8170   79.3310 C.3   201  ARG201      0.2205
    157  NE       -23.3760   13.0620   78.8070 N.pl3 201  ARG201     -0.0865
    158  CZ       -22.0800   13.3630   78.7740 C.cat 201  ARG201      0.5346
    159  NH1      -21.1750   12.4900   79.2110 N.pl3 201  ARG201      0.1354
    160  NH2      -21.6850   14.5380   78.2980 N.pl3 201  ARG201      0.1354
    161  N        -29.6520    9.7820   85.0930 N.3   204  GLU204     -0.1245
    162  CA       -30.7950   10.4870   84.5000 C.3   204  GLU204      0.1567
    163  C        -31.1670    9.9160   83.1370 C.2   204  GLU204      0.2260
    164  O        -32.1440   10.3460   82.5160 O.2   204  GLU204     -0.2867
    165  CB       -30.5240   11.9950   84.4070 C.3   204  GLU204      0.0388
    166  CG       -29.1690   12.3540   83.8090 C.3   204  GLU204      0.1160
    167  CD       -28.9440   13.8460   83.7050 C.2   204  GLU204      0.3649
    168  OE1      -29.3780   14.4490   82.7010 O.co2 204  GLU204     -0.2457
    169  OE2      -28.3100   14.4110   84.6130 O.co2 204  GLU204     -0.2457
@<TRIPOS>BOND
     1   105   104    2
     2   108   107   ar
     3   106   107    1
     4   106   103    1
     5   104   103    1
     6   107   109   ar
     7   103   102    1
     8   160   158    1
     9   117   115   ar
    10   158   157    2
    11   158   159    1
    12   157   156    1
    13   156   155    1
    14   115   116   ar
    15   115   114    1
    16    59    58    1
    17    91    89    1
    18    60    58    1
    19    12    11    1
    20   114   111    1
    21    90    89    1
    22   155   154    1
    23    58    55    1
    24    10    11   ar
    25    10     8   ar
    26    89    86    1
    27    11     9   ar
    28   154   151    1
    29   110   111    1
    30    84    83    1
    31   111   112    1
    32     8     6   ar
    33   153   152    2
    34    55    56    1
    35    55    54    1
    36    86    87    1
    37    86    85    1
    38   164   163    2
    39     9     7   ar
    40    83    82    1
    41    61    56   am
    42    61    62    1
    43   152   151    1
    44   112   113    2
    45   151   150    1
    46   168   167   ar
    47    56    57    2
    48    88    87    2
    49    54    50   am
    50   163   162    1
    51    87    92   am
    52    85    78   am
    53     6     7   ar
    54     6     5    1
    55    62    63    1
    56   167   166    1
    57   167   169   ar
    58   166   165    1
    59     1     2    1
    60   150   145   am
    61    92    93    1
    62    82    81    1
    63     5     2    1
    64    50    51    2
    65    50    49    1
    66    78    79    2
    67    78    77    1
    68    80    81    1
    69    80    77    1
    70   165   162    1
    71   162   161    1
    72    63    65   am
    73    63    64    2
    74    93    94    1
    75    93    96    1
    76     2     3    1
    77    65    66    1
    78    77    76    1
    79   145   146    2
    80   145   144    1
    81    49    52    1
    82    49    48    1
    83    76    74   am
    84    95    94    2
    85     4     3    2
    86    96    97    1
    87    72    73    1
    88    72    67   am
    89    74    73    1
    90    74    75    2
    91    52    53    1
    92   143   144    1
    93   144   147    1
    94    98    97   ar
    95    98   100   ar
    96    66    69    1
    97    66    67    1
    98    97    99   ar
    99    69    70    1
   100    69    71    1
   101   147   148    1
   102   147   149    1
   103    67    68    2
   104    19    18    2
   105   100   101   ar
   106    99   101   ar
   107   142   141    1
   108    18    20   am
   109    18    17    1
   110   140   141    1
   111   140   139    1
   112    17    14    1
   113   139   138    1
   114    29    27   ar
   115    29    31   ar
   116   124   123    1
   117    27    26   ar
   118   138   135    1
   119    16    15    2
   120   137   136    2
   121   125   123    1
   122    15    14    1
   123    15    21   am
   124    14    13    1
   125    31    30   ar
   126   136   135    1
   127   135   134    1
   128   123   122    1
   129    26    25    1
   130    26    28   ar
   131    25    22    1
   132   132   130    1
   133    21    22    1
   134    22    23    1
   135   122   119    1
   136    30    28   ar
   137   118   119    1
   138   119   120    1
   139   130   131    1
   140   130   127    1
   141    32    23   am
   142    32    33    1
   143    23    24    2
   144   121   120    2
   145   129   128    2
   146   131   133    1
   147    46    45    2
   148   128   127    1
   149    44    45    1
   150    44    41    1
   151   127   126    1
   152    37    36    1
   153    37    39    1
   154    45    47   am
   155    36    33    1
   156    36    38    1
   157    35    34    2
   158    33    34    1
   159    41    40    1
   160    41    42    1
   161    43    42    2
