@<TRIPOS>MOLECULE
tmp/2hckB00.pdb
 129 119 0 0 0
SMALL
GASTEIGER

@<TRIPOS>ATOM
      1  N         44.0880   43.0020  169.8460 N.3   190  LEU190     -0.1231
      2  CA        44.2820   42.0990  168.7070 C.3   190  LEU190      0.1693
      3  C         45.4180   42.4440  167.7580 C.2   190  LEU190      0.2593
      4  O         45.9750   41.5450  167.1170 O.2   190  LEU190     -0.2718
      5  CB        43.0070   42.0210  167.9060 C.3   190  LEU190      0.0284
      6  CG        41.9530   41.1980  168.5970 C.3   190  LEU190      0.0019
      7  CD1       40.6310   41.5540  167.9630 C.3   190  LEU190      0.0001
      8  CD2       42.3390   39.7140  168.5740 C.3   190  LEU190      0.0001
      9  N         45.7390   43.7350  167.6210 N.am  191  GLY191     -0.1942
     10  CA        46.8810   44.1740  166.8360 C.3   191  GLY191      0.2014
     11  C         47.1060   45.6620  167.0600 C.2   191  GLY191      0.2638
     12  O         46.1600   46.3860  167.4040 O.2   191  GLY191     -0.2714
     13  N         48.3530   46.1100  166.9130 N.am  192  ALA192     -0.1977
     14  CA        48.7210   47.5070  167.0580 C.3   192  ALA192      0.1597
     15  C         49.0470   47.9890  165.6570 C.2   192  ALA192      0.2287
     16  O         49.5420   47.2170  164.8170 O.2   192  ALA192     -0.2864
     17  CB        49.9720   47.6810  167.8870 C.3   192  ALA192      0.0319
     18  N         43.6230   47.8170  167.5500 N.3   198  VAL198     -0.1245
     19  CA        42.3050   47.2400  167.3620 C.3   198  VAL198      0.1561
     20  C         42.1450   46.2350  168.4800 C.2   198  VAL198      0.2260
     21  O         42.9780   45.3430  168.7080 O.2   198  VAL198     -0.2867
     22  CB        42.1230   46.4890  166.0560 C.3   198  VAL198      0.0252
     23  CG1       40.6820   46.7100  165.6850 C.3   198  VAL198      0.0019
     24  CG2       43.0390   46.9620  164.9520 C.3   198  VAL198      0.0019
     25  N         34.5880   44.8590  167.2040 N.3   210  ALA210     -0.1245
     26  CA        35.9840   45.2970  167.4180 C.3   210  ALA210      0.1562
     27  C         36.0330   46.8520  167.4420 C.2   210  ALA210      0.2260
     28  O         35.0550   47.5780  167.1590 O.2   210  ALA210     -0.2867
     29  CB        36.9340   44.7800  166.3210 C.3   210  ALA210      0.0290
     30  N         38.6210   50.2820  167.0040 N.3   212  LYS212     -0.1245
     31  CA        39.8770   50.8440  166.6470 C.3   212  LYS212      0.1561
     32  C         40.0080   52.0230  167.5950 C.2   212  LYS212      0.2260
     33  O         39.0780   52.8400  167.6640 O.2   212  LYS212     -0.2867
     34  CB        39.7880   51.2050  165.1620 C.3   212  LYS212      0.0271
     35  CG        41.1730   51.1780  164.4880 C.3   212  LYS212      0.0035
     36  CD        41.0610   50.9600  163.0030 C.3   212  LYS212      0.0206
     37  CE        42.3440   51.4460  162.3290 C.3   212  LYS212      0.1093
     38  NZ        43.5020   50.5480  162.3420 N.3   212  LYS212     -0.1314
     39  N         33.6990   45.7600  155.6890 N.3   240  VAL240     -0.1245
     40  CA        33.3760   45.4610  157.0690 C.3   240  VAL240      0.1561
     41  C         32.3900   46.4880  157.6080 C.2   240  VAL240      0.2260
     42  O         32.5730   47.6950  157.5350 O.2   240  VAL240     -0.2867
     43  CB        34.7830   45.3610  157.7980 C.3   240  VAL240      0.0252
     44  CG1       35.2750   46.6400  158.4640 C.3   240  VAL240      0.0019
     45  CG2       34.6550   44.2870  158.8270 C.3   240  VAL240      0.0019
     46  N         33.5100   48.3740  164.4870 N.3   255  THR255     -0.1203
     47  CA        33.1850   47.6420  163.2740 C.3   255  THR255      0.1994
     48  C         32.8240   46.2500  163.7670 C.2   255  THR255      0.2618
     49  O         33.0480   45.8990  164.9500 O.2   255  THR255     -0.2717
     50  CB        34.4210   47.6310  162.3440 C.3   255  THR255      0.1784
     51  OG1       35.5600   46.9820  162.9230 O.3   255  THR255     -0.2211
     52  CG2       34.7750   49.0770  162.0600 C.3   255  THR255      0.0376
     53  N         32.1450   45.4450  162.9350 N.am  256  GLU256     -0.1965
     54  CA        31.8270   44.0450  163.2760 C.3   256  GLU256      0.1733
     55  C         33.0740   43.1890  163.5220 C.2   256  GLU256      0.2616
     56  O         34.1760   43.4770  162.9920 O.2   256  GLU256     -0.2715
     57  CB        31.0420   43.4280  162.1700 C.3   256  GLU256      0.0429
     58  CG        31.7440   43.5700  160.8390 C.3   256  GLU256      0.1163
     59  CD        31.0550   42.8890  159.6680 C.2   256  GLU256      0.3649
     60  OE1       30.3740   41.8980  159.8910 O.co2 256  GLU256     -0.2457
     61  OE2       31.1930   43.3130  158.5210 O.co2 256  GLU256     -0.2457
     62  N         32.8740   42.1540  164.3640 N.am  257  PHE257     -0.1960
     63  CA        33.9560   41.2400  164.6970 C.3   257  PHE257      0.1771
     64  C         34.2450   40.2930  163.5480 C.2   257  PHE257      0.2619
     65  O         33.3400   39.6220  163.0690 O.2   257  PHE257     -0.2715
     66  CB        33.6240   40.4250  165.9400 C.3   257  PHE257      0.0574
     67  CG        34.8300   39.5800  166.3510 C.ar  257  PHE257     -0.0200
     68  CD1       36.0680   40.2060  166.6440 C.ar  257  PHE257     -0.0042
     69  CD2       34.7380   38.1700  166.3810 C.ar  257  PHE257     -0.0042
     70  CE1       37.1990   39.4300  166.9580 C.ar  257  PHE257     -0.0003
     71  CE2       35.8870   37.4000  166.6950 C.ar  257  PHE257     -0.0003
     72  CZ        37.1180   38.0210  166.9810 C.ar  257  PHE257     -0.0000
     73  N         35.4880   40.2200  163.0880 N.am  258  MET258     -0.1963
     74  CA        35.8440   39.3270  162.0040 C.3   258  MET258      0.1736
     75  C         36.8130   38.2640  162.4460 C.2   258  MET258      0.2613
     76  O         38.0380   38.3670  162.4000 O.2   258  MET258     -0.2715
     77  CB        36.4810   40.0500  160.8110 C.3   258  MET258      0.0427
     78  CG        35.4840   40.8710  159.9910 C.3   258  MET258      0.0599
     79  SD        34.1650   39.8280  159.3290 S.3   258  MET258     -0.1393
     80  CE        35.0140   39.5550  157.8090 C.3   258  MET258      0.0692
     81  N         36.0680   37.2120  162.7740 N.am  259  ALA259     -0.2031
     82  CA        36.5850   35.9940  163.3500 C.3   259  ALA259      0.1283
     83  C         38.0070   35.6510  163.0310 C.3   259  ALA259      0.2036
     84  O         38.7870   35.7650  163.9750 O.3   259  ALA259     -0.2185
     85  CB        35.7320   34.8020  162.9520 C.3   259  ALA259      0.0262
     86  N         40.7370   37.1490  161.6960 N.3   261  GLY261     -0.1210
     87  CA        41.8570   38.0590  161.6330 C.3   261  GLY261      0.1956
     88  C         42.0950   38.6730  160.2810 C.2   261  GLY261      0.2612
     89  O         41.2250   38.5970  159.4200 O.2   261  GLY261     -0.2717
     90  N         43.2170   39.3830  160.0760 N.am  262  SER262     -0.1952
     91  CA        43.4630   40.0170  158.7890 C.3   262  SER262      0.1924
     92  C         43.8700   38.8830  157.8890 C.2   262  SER262      0.2314
     93  O         44.4860   37.9120  158.3740 O.2   262  SER262     -0.2863
     94  CB        44.5820   41.0900  158.8680 C.3   262  SER262      0.2116
     95  OG        45.8960   40.7360  159.3030 O.3   262  SER262     -0.2180
     96  N         47.3090   37.6320  158.4010 N.3   265  ASP265     -0.1239
     97  CA        47.5560   36.8060  159.5580 C.3   265  ASP265      0.1674
     98  C         47.0020   35.4500  159.2620 C.2   265  ASP265      0.2266
     99  O         47.7630   34.4960  159.3710 O.2   265  ASP265     -0.2867
    100  CB        46.8780   37.3700  160.7960 C.3   265  ASP265      0.1410
    101  CG        47.8480   37.9230  161.8530 C.2   265  ASP265      0.3668
    102  OD1       49.0240   38.2210  161.5510 O.co2 265  ASP265     -0.2456
    103  OD2       47.3970   38.0580  163.0020 O.co2 265  ASP265     -0.2456
    104  N         46.5580   43.0350  155.1760 N.3   307  ALA307     -0.1245
    105  CA        46.3810   43.6130  156.4810 C.3   307  ALA307      0.1562
    106  C         45.0420   44.3460  156.6340 C.2   307  ALA307      0.2260
    107  O         44.4450   44.2830  157.7220 O.2   307  ALA307     -0.2867
    108  CB        47.5400   44.5610  156.7120 C.3   307  ALA307      0.0290
    109  N         40.1080   41.4350  156.1910 N.3   310  LEU310     -0.1301
    110  CA        39.8530   40.6090  157.3460 C.3   310  LEU310      0.1247
    111  C         39.0760   39.3850  156.9420 C.3   310  LEU310      0.2009
    112  O         38.3940   39.5180  155.9240 O.3   310  LEU310     -0.2188
    113  CB        39.0220   41.3740  158.3440 C.3   310  LEU310      0.0217
    114  CG        39.6340   42.6320  158.8800 C.3   310  LEU310      0.0015
    115  CD1       38.5960   43.6140  159.3200 C.3   310  LEU310      0.0000
    116  CD2       40.5910   42.1830  159.9200 C.3   310  LEU310      0.0000
    117  N         38.6120   46.7580  155.2550 N.3   320  ALA320     -0.1231
    118  CA        38.4650   47.5880  156.4500 C.3   320  ALA320      0.1694
    119  C         39.2200   48.9140  156.3480 C.2   320  ALA320      0.2592
    120  O         40.0690   49.0440  155.4580 O.2   320  ALA320     -0.2718
    121  CB        39.0130   46.8710  157.6590 C.3   320  ALA320      0.0304
    122  N         38.9530   49.9020  157.2380 N.am  321  ASP321     -0.1974
    123  CA        39.6710   51.1880  157.3220 C.3   321  ASP321      0.1709
    124  C         39.7440   51.8810  155.9540 C.2   321  ASP321      0.2293
    125  O         40.8000   52.1350  155.3750 O.2   321  ASP321     -0.2864
    126  CB        41.1130   50.9480  157.8680 C.3   321  ASP321      0.1436
    127  CG        41.3380   50.0990  159.1320 C.2   321  ASP321      0.3671
    128  OD1       40.3670   49.7490  159.8350 O.co2 321  ASP321     -0.2456
    129  OD2       42.5160   49.7930  159.4000 O.co2 321  ASP321     -0.2456
@<TRIPOS>BOND
     1   104   105    1
     2   117   118    1
     3   125   124    2
     4   120   119    2
     5    39    40    1
     6   112   111    1
     7   124   123    1
     8   109   110    1
     9   119   118    1
    10   119   122   am
    11   118   121    1
    12   105   106    1
    13   105   108    1
    14   106   107    2
    15   111   110    1
    16    40    41    1
    17    40    43    1
    18   122   123    1
    19   123   126    1
    20   110   113    1
    21    42    41    2
    22    43    44    1
    23    43    45    1
    24    80    79    1
    25   126   127    1
    26    92    93    2
    27    92    91    1
    28   113   114    1
    29    96    97    1
    30    61    59   ar
    31    91    94    1
    32    91    90    1
    33    94    95    1
    34   114   115    1
    35   114   116    1
    36   127   129   ar
    37   127   128   ar
    38    98    99    2
    39    98    97    1
    40    79    78    1
    41    89    88    2
    42    97   100    1
    43    59    60   ar
    44    59    58    1
    45    78    77    1
    46    90    88   am
    47    88    87    1
    48   100   101    1
    49    77    74    1
    50    58    57    1
    51   102   101   ar
    52    87    86    1
    53   101   103   ar
    54    74    75    1
    55    74    73    1
    56    52    50    1
    57    57    54    1
    58    37    38    1
    59    37    36    1
    60    50    51    1
    61    50    47    1
    62    76    75    2
    63    75    81   am
    64    81    82    1
    65    53    54    1
    66    53    48   am
    67    85    82    1
    68    56    55    2
    69    36    35    1
    70    83    82    1
    71    83    84    1
    72    65    64    2
    73    73    64   am
    74    47    48    1
    75    47    46    1
    76    54    55    1
    77    55    62   am
    78    64    63    1
    79    48    49    2
    80    62    63    1
    81    35    34    1
    82    63    66    1
    83    16    15    2
    84    24    22    1
    85    34    31    1
    86    15    14    1
    87    23    22    1
    88    66    67    1
    89    22    19    1
    90    29    26    1
    91    67    69   ar
    92    67    68   ar
    93    69    71   ar
    94    68    70   ar
    95    31    30    1
    96    31    32    1
    97    71    72   ar
    98    10    11    1
    99    10     9    1
   100    13    14    1
   101    13    11   am
   102    70    72   ar
   103    14    17    1
   104    11    12    2
   105     4     3    2
   106    28    27    2
   107    25    26    1
   108    19    18    1
   109    19    20    1
   110    26    27    1
   111    32    33    2
   112     9     3   am
   113     3     2    1
   114     5     6    1
   115     5     2    1
   116     7     6    1
   117    20    21    2
   118     8     6    1
   119     2     1    1
