@<TRIPOS>MOLECULE
tmp/2hcrB00.pdb
 87 82 0 0 0
SMALL
GASTEIGER

@<TRIPOS>ATOM
      1  N        -87.8470   24.7330  -54.0640 N.3    92  TYR92      -0.1241
      2  CA       -88.4180   25.1400  -52.7680 C.3    92  TYR92       0.1605
      3  C        -89.8730   25.5810  -52.7990 C.2    92  TYR92       0.2264
      4  O        -90.3800   26.1160  -51.8110 O.2    92  TYR92      -0.2867
      5  CB       -87.5450   26.1950  -52.0720 C.3    92  TYR92       0.0534
      6  CG       -86.1850   25.6800  -51.6480 C.ar   92  TYR92      -0.0201
      7  CD1      -85.0770   25.8030  -52.4840 C.ar   92  TYR92      -0.0009
      8  CD2      -86.0090   25.0780  -50.4040 C.ar   92  TYR92      -0.0009
      9  CE1      -83.8220   25.3360  -52.0900 C.ar   92  TYR92       0.0417
     10  CE2      -84.7670   24.6010  -50.0040 C.ar   92  TYR92       0.0417
     11  CZ       -83.6800   24.7380  -50.8450 C.ar   92  TYR92       0.1957
     12  OH       -82.4560   24.2700  -50.4370 O.3    92  TYR92      -0.2866
     13  N        -92.5850   23.9080  -52.5070 N.3    94  ARG94      -0.1231
     14  CA       -93.3490   23.3070  -51.3940 C.3    94  ARG94       0.1694
     15  C        -93.1380   23.9880  -50.0410 C.2    94  ARG94       0.2592
     16  O        -93.8130   23.6540  -49.0720 O.2    94  ARG94      -0.2718
     17  CB       -93.0330   21.8180  -51.2540 C.3    94  ARG94       0.0321
     18  CG       -93.7520   20.9100  -52.2380 C.3    94  ARG94       0.0489
     19  CD       -93.2250   19.4860  -52.1470 C.3    94  ARG94       0.2205
     20  NE       -91.8540   19.3960  -52.6390 N.pl3  94  ARG94      -0.0865
     21  CZ       -91.1260   18.2820  -52.6810 C.cat  94  ARG94       0.5346
     22  NH1      -91.6230   17.1210  -52.2540 N.pl3  94  ARG94       0.1354
     23  NH2      -89.8860   18.3340  -53.1510 N.pl3  94  ARG94       0.1354
     24  N        -92.1870   24.9140  -49.9610 N.am   95  GLN95      -0.1966
     25  CA       -92.0630   25.7880  -48.7870 C.3    95  GLN95       0.1733
     26  C        -92.5700   27.1880  -49.1280 C.2    95  GLN95       0.2616
     27  O        -91.8190   28.1520  -49.1140 O.2    95  GLN95      -0.2715
     28  CB       -90.6180   25.8640  -48.2800 C.3    95  GLN95       0.0408
     29  CG       -90.2510   24.8870  -47.1700 C.3    95  GLN95       0.0908
     30  CD       -91.2080   24.9060  -45.9790 C.2    95  GLN95       0.2608
     31  OE1      -91.4500   25.9430  -45.3550 O.2    95  GLN95      -0.2717
     32  NE2      -91.7430   23.7440  -45.6560 N.am   95  GLN95      -0.0878
     33  N        -93.8560   27.2820  -49.4340 N.am   96  ASP96      -0.1957
     34  CA       -94.4610   28.5370  -49.8710 C.3    96  ASP96       0.1840
     35  C        -95.3830   29.1530  -48.8050 C.2    96  ASP96       0.2621
     36  O        -96.0900   30.1310  -49.0690 O.2    96  ASP96      -0.2715
     37  CB       -95.1900   28.3450  -51.2130 C.3    96  ASP96       0.1450
     38  CG       -96.2810   27.2760  -51.1570 C.2    96  ASP96       0.3671
     39  OD1      -96.2780   26.4300  -50.2410 O.co2  96  ASP96      -0.2456
     40  OD2      -97.1470   27.2790  -52.0530 O.co2  96  ASP96      -0.2456
     41  N        -95.3450   28.5810  -47.6020 N.am   97  LYS97      -0.1977
     42  CA       -96.1030   29.0810  -46.4470 C.3    97  LYS97       0.1596
     43  C        -95.4900   28.5810  -45.1300 C.2    97  LYS97       0.2287
     44  O        -94.6340   27.6950  -45.1340 O.2    97  LYS97      -0.2864
     45  CB       -97.5670   28.6510  -46.5500 C.3    97  LYS97       0.0298
     46  CG       -97.7900   27.2000  -46.1900 C.3    97  LYS97       0.0038
     47  CD       -99.1700   26.7410  -46.5590 C.3    97  LYS97       0.0206
     48  CE       -99.1090   25.8320  -47.7500 C.3    97  LYS97       0.1093
     49  NZ      -100.3340   25.0070  -47.8010 N.3    97  LYS97      -0.1314
     50  N        -97.2820   27.1580  -42.5540 N.3    99  ASP99      -0.1239
     51  CA       -97.9910   25.9170  -42.1920 C.3    99  ASP99       0.1674
     52  C        -98.2250   25.7520  -40.6880 C.2    99  ASP99       0.2266
     53  O        -97.9530   24.6830  -40.1330 O.2    99  ASP99      -0.2867
     54  CB       -97.2630   24.6780  -42.7480 C.3    99  ASP99       0.1410
     55  CG       -98.0510   23.9550  -43.8260 C.2    99  ASP99       0.3668
     56  OD1      -99.1940   24.3630  -44.1330 O.co2  99  ASP99      -0.2456
     57  OD2      -97.5200   22.9590  -44.3620 O.co2  99  ASP99      -0.2456
     58  N        -95.9950   25.0970  -57.8760 N.3   128  HIS128     -0.1241
     59  CA       -96.6910   24.2660  -56.8970 C.3   128  HIS128      0.1621
     60  C        -97.9450   24.9650  -56.3950 C.2   128  HIS128      0.2264
     61  O        -98.9840   24.3310  -56.1970 O.2   128  HIS128     -0.2867
     62  CB       -95.7580   23.9210  -55.7340 C.3   128  HIS128      0.0745
     63  CG       -96.4140   23.1230  -54.6510 C.ar  128  HIS128      0.0817
     64  ND1      -96.8500   21.8280  -54.8390 N.ar  128  HIS128     -0.2268
     65  CD2      -96.7080   23.4370  -53.3700 C.ar  128  HIS128      0.1154
     66  CE1      -97.3910   21.3830  -53.7190 C.ar  128  HIS128      0.1986
     67  NE2      -97.3140   22.3400  -52.8120 N.ar  128  HIS128     -0.2212
     68  N       -104.1580   14.2460  -53.1380 N.3   169  ASP169     -0.1239
     69  CA      -104.2960   14.9750  -51.8780 C.3   169  ASP169      0.1674
     70  C       -105.3860   16.0260  -51.9380 C.2   169  ASP169      0.2266
     71  O       -106.0100   16.2270  -52.9830 O.2   169  ASP169     -0.2867
     72  CB      -102.9660   15.5980  -51.4330 C.3   169  ASP169      0.1410
     73  CG      -102.3440   16.4960  -52.4880 C.2   169  ASP169      0.3668
     74  OD1     -103.0720   17.1190  -53.3000 O.co2 169  ASP169     -0.2456
     75  OD2     -101.1030   16.5870  -52.4950 O.co2 169  ASP169     -0.2456
     76  N       -104.9790   19.2850  -51.4820 N.3   171  GLY171     -0.1225
     77  CA      -104.4560   20.4500  -52.1930 C.3   171  GLY171      0.1811
     78  C       -104.5610   20.4350  -53.7120 C.2   171  GLY171      0.2280
     79  O       -104.4900   21.4920  -54.3460 O.2   171  GLY171     -0.2866
     80  N        -92.4720   12.9420  -55.9230 N.3   215  ASP215     -0.1239
     81  CA       -91.1700   12.8830  -55.2730 C.3   215  ASP215      0.1674
     82  C        -90.8290   11.4490  -54.8520 C.2   215  ASP215      0.2266
     83  O        -90.4740   10.6400  -55.7010 O.2   215  ASP215     -0.2867
     84  CB       -91.1190   13.8550  -54.0940 C.3   215  ASP215      0.1410
     85  CG       -89.7100   14.2430  -53.7180 C.2   215  ASP215      0.3668
     86  OD1      -88.7620   13.5110  -54.0790 O.co2 215  ASP215     -0.2456
     87  OD2      -89.5550   15.2960  -53.0650 O.co2 215  ASP215     -0.2456
@<TRIPOS>BOND
     1    58    59    1
     2    59    60    1
     3    59    62    1
     4    60    61    2
     5    80    81    1
     6    62    63    1
     7    83    82    2
     8    81    82    1
     9    81    84    1
    10    64    63   ar
    11    64    66   ar
    12    63    65   ar
    13    79    78    2
    14    84    85    1
    15    86    85   ar
    16     1     2    1
    17    66    67   ar
    18    85    87   ar
    19    78    77    1
    20    65    67   ar
    21    74    73   ar
    22    23    21    1
    23    68    69    1
    24    71    70    2
    25     3     2    1
    26     3     4    2
    27     2     5    1
    28    21    20    2
    29    21    22    1
    30    20    19    1
    31    13    14    1
    32    75    73   ar
    33    73    72    1
    34     7     9   ar
    35     7     6   ar
    36    18    19    1
    37    18    17    1
    38    77    76    1
    39     9    11   ar
    40     5     6    1
    41    40    38   ar
    42    70    69    1
    43    69    72    1
    44     6     8   ar
    45    14    17    1
    46    14    15    1
    47    37    38    1
    48    37    34    1
    49    38    39   ar
    50    11    12    1
    51    11    10   ar
    52     8    10   ar
    53    15    24   am
    54    15    16    2
    55    24    25    1
    56    34    33    1
    57    34    35    1
    58    33    26   am
    59    26    27    2
    60    26    25    1
    61    36    35    2
    62    35    41   am
    63    25    28    1
    64    28    29    1
    65    49    48    1
    66    48    47    1
    67    41    42    1
    68    29    30    1
    69    47    46    1
    70    45    42    1
    71    45    46    1
    72    42    43    1
    73    30    32   am
    74    30    31    2
    75    44    43    2
    76    57    55   ar
    77    56    55   ar
    78    55    54    1
    79    54    51    1
    80    50    51    1
    81    51    52    1
    82    52    53    2
