@<TRIPOS>MOLECULE
tmp/2hd0H01.pdb
 98 92 0 0 0
SMALL
GASTEIGER

@<TRIPOS>ATOM
      1  N         57.2840   27.8590   60.1440 N.3     9  LEU9       -0.1245
      2  CA        56.1090   28.3560   60.8540 C.3     9  LEU9        0.1561
      3  C         56.1820   28.2000   62.3660 C.2     9  LEU9        0.2260
      4  O         56.4230   27.1000   62.8730 O.2     9  LEU9       -0.2867
      5  CB        54.8530   27.6320   60.3750 C.3     9  LEU9        0.0270
      6  CG        54.3680   27.9510   58.9730 C.3     9  LEU9        0.0019
      7  CD1       53.0740   27.1910   58.7150 C.3     9  LEU9        0.0001
      8  CD2       54.1640   29.4580   58.8440 C.3     9  LEU9        0.0001
      9  N         54.4410   27.4020   64.8060 N.3    11  VAL11      -0.1245
     10  CA        53.2220   26.7090   65.2150 C.3    11  VAL11       0.1561
     11  C         53.6350   25.3510   65.7760 C.2    11  VAL11       0.2260
     12  O         54.5090   24.6910   65.2180 O.2    11  VAL11      -0.2867
     13  CB        52.2660   26.4990   64.0050 C.3    11  VAL11       0.0252
     14  CG1       50.9840   25.8160   64.4590 C.3    11  VAL11       0.0019
     15  CG2       51.9470   27.8400   63.3510 C.3    11  VAL11       0.0019
     16  N         52.4540   19.5020   66.7600 N.3    14  PHE14      -0.1227
     17  CA        51.1830   18.8000   66.8270 C.3    14  PHE14       0.1736
     18  C         50.1280   19.4080   65.9140 C.2    14  PHE14       0.2595
     19  O         49.4360   18.7000   65.1840 O.2    14  PHE14      -0.2718
     20  CB        50.6340   18.7950   68.2590 C.3    14  PHE14       0.0547
     21  CG        49.2680   18.1640   68.3710 C.ar   14  PHE14      -0.0202
     22  CD1       49.1270   16.7780   68.4200 C.ar   14  PHE14      -0.0042
     23  CD2       48.1170   18.9540   68.3360 C.ar   14  PHE14      -0.0042
     24  CE1       47.8540   16.1840   68.4280 C.ar   14  PHE14      -0.0003
     25  CE2       46.8420   18.3730   68.3430 C.ar   14  PHE14      -0.0003
     26  CZ        46.7130   16.9880   68.3870 C.ar   14  PHE14      -0.0000
     27  N         50.0040   20.7260   65.9770 N.am   15  VAL15      -0.1966
     28  CA        49.0210   21.4410   65.1840 C.3    15  VAL15       0.1727
     29  C         49.3760   21.5110   63.7050 C.2    15  VAL15       0.2616
     30  O         48.4870   21.5420   62.8510 O.2    15  VAL15      -0.2715
     31  CB        48.8380   22.8670   65.7120 C.3    15  VAL15       0.0290
     32  CG1       47.7770   23.5790   64.9070 C.3    15  VAL15       0.0023
     33  CG2       48.4620   22.8320   67.1940 C.3    15  VAL15       0.0023
     34  N         50.6710   21.5610   63.4040 N.am   16  ARG16      -0.1977
     35  CA        51.1110   21.6240   62.0210 C.3    16  ARG16       0.1597
     36  C         50.7980   20.3010   61.3450 C.2    16  ARG16       0.2287
     37  O         50.4460   20.2710   60.1700 O.2    16  ARG16      -0.2864
     38  CB        52.6090   21.9030   61.9360 C.3    16  ARG16       0.0334
     39  CG        52.9740   23.3420   62.2170 C.3    16  ARG16       0.0492
     40  CD        54.4460   23.6080   61.9590 C.3    16  ARG16       0.2205
     41  NE        55.3220   23.2200   63.0620 N.pl3  16  ARG16      -0.0865
     42  CZ        56.3090   22.3310   62.9780 C.cat  16  ARG16       0.5346
     43  NH1       56.5590   21.7000   61.8340 N.pl3  16  ARG16       0.1354
     44  NH2       57.0850   22.1050   64.0320 N.pl3  16  ARG16       0.1354
     45  N         48.3480   18.0930   62.3400 N.3    18  GLN18      -0.1231
     46  CA        46.9000   17.9650   62.2400 C.3    18  GLN18       0.1698
     47  C         46.3800   18.7120   61.0160 C.2    18  GLN18       0.2593
     48  O         45.5500   18.1890   60.2740 O.2    18  GLN18      -0.2718
     49  CB        46.2260   18.4990   63.5110 C.3    18  GLN18       0.0381
     50  CG        46.3330   17.5710   64.7330 C.3    18  GLN18       0.0905
     51  CD        45.7840   16.1740   64.4880 C.2    18  GLN18       0.2608
     52  OE1       44.6210   16.0070   64.1420 O.2    18  GLN18      -0.2717
     53  NE2       46.6380   15.1720   64.6060 N.am   18  GLN18      -0.0878
     54  N         46.8660   19.9330   60.8110 N.am   19  GLY19      -0.1942
     55  CA        46.4250   20.7260   59.6750 C.3    19  GLY19       0.2014
     56  C         46.8660   20.1520   58.3410 C.2    19  GLY19       0.2638
     57  O         46.1380   20.1990   57.3480 O.2    19  GLY19      -0.2714
     58  N         48.0750   19.6050   58.3200 N.am   20  LEU20      -0.1977
     59  CA        48.6110   19.0140   57.1120 C.3    20  LEU20       0.1596
     60  C         47.7880   17.7800   56.7380 C.2    20  LEU20       0.2287
     61  O         47.3240   17.6540   55.6070 O.2    20  LEU20      -0.2864
     62  CB        50.0700   18.6190   57.3280 C.3    20  LEU20       0.0297
     63  CG        50.8500   18.1940   56.0870 C.3    20  LEU20       0.0022
     64  CD1       50.9700   19.3760   55.1400 C.3    20  LEU20       0.0001
     65  CD2       52.2250   17.6850   56.4920 C.3    20  LEU20       0.0001
     66  N         44.8540   17.0520   57.4560 N.3    22  ARG22      -0.1231
     67  CA        43.4710   17.3580   57.1160 C.3    22  ARG22       0.1694
     68  C         43.3950   17.6250   55.6210 C.2    22  ARG22       0.2591
     69  O         42.5680   17.0390   54.9190 O.2    22  ARG22      -0.2718
     70  CB        42.9630   18.5780   57.8800 C.3    22  ARG22       0.0321
     71  CG        42.6980   18.3280   59.3540 C.3    22  ARG22       0.0489
     72  CD        41.9290   19.4850   59.9720 C.3    22  ARG22       0.2205
     73  NE        42.1590   19.5870   61.4120 N.pl3  22  ARG22      -0.0865
     74  CZ        41.7930   18.6730   62.3080 C.cat  22  ARG22       0.5346
     75  NH1       41.1670   17.5670   61.9280 N.pl3  22  ARG22       0.1354
     76  NH2       42.0610   18.8660   63.5920 N.pl3  22  ARG22       0.1354
     77  N         44.2580   18.5130   55.1380 N.am   23  ILE23      -0.1980
     78  CA        44.2860   18.8320   53.7190 C.3    23  ILE23       0.1595
     79  C         44.4390   17.5270   52.9410 C.2    23  ILE23       0.2287
     80  O         43.8390   17.3600   51.8820 O.2    23  ILE23      -0.2864
     81  CB        45.4560   19.7810   53.3740 C.3    23  ILE23       0.0276
     82  CG1       45.3510   21.0640   54.2050 C.3    23  ILE23       0.0022
     83  CG2       45.4240   20.1320   51.8910 C.3    23  ILE23       0.0022
     84  CD1       46.5400   21.9940   54.0510 C.3    23  ILE23       0.0001
     85  N         58.5370   22.9650   54.5000 N.3    47  THR47      -0.1218
     86  CA        58.1570   23.8770   55.5700 C.3    47  THR47       0.1862
     87  C         58.7390   23.4600   56.9170 C.2    47  THR47       0.2287
     88  O         58.7440   24.2410   57.8640 O.2    47  THR47      -0.2866
     89  CB        56.6220   23.9510   55.6770 C.3    47  THR47       0.1770
     90  OG1       56.1140   24.6750   54.5510 O.3    47  THR47      -0.2211
     91  CG2       56.1880   24.6450   56.9600 C.3    47  THR47       0.0375
     92  N         57.9260   20.2080   58.4780 N.3    49  THR49      -0.1218
     93  CA        56.9840   19.3910   59.2370 C.3    49  THR49       0.1862
     94  C         56.8010   18.0100   58.6180 C.2    49  THR49       0.2287
     95  O         56.2390   17.8680   57.5380 O.2    49  THR49      -0.2866
     96  CB        55.6060   20.0980   59.3920 C.3    49  THR49       0.1770
     97  OG1       54.5520   19.1230   59.3370 O.3    49  THR49      -0.2211
     98  CG2       55.4070   21.1470   58.3200 C.3    49  THR49       0.0375
@<TRIPOS>BOND
     1    80    79    2
     2    83    81    1
     3    79    78    1
     4    81    78    1
     5    81    82    1
     6    78    77    1
     7    84    82    1
     8    85    86    1
     9    90    89    1
    10    69    68    2
    11    77    68   am
    12    64    63    1
    13    86    89    1
    14    86    87    1
    15    61    60    2
    16    68    67    1
    17    89    91    1
    18    63    65    1
    19    63    62    1
    20    60    59    1
    21    87    88    2
    22    59    62    1
    23    59    58    1
    24    67    66    1
    25    67    70    1
    26    57    56    2
    27    95    94    2
    28    70    71    1
    29    58    56   am
    30    98    96    1
    31    56    55    1
    32    92    93    1
    33    94    93    1
    34     7     6    1
    35     8     6    1
    36     6     5    1
    37    93    96    1
    38    97    96    1
    39    71    72    1
    40    55    54    1
    41    72    73    1
    42     1     2    1
    43    37    36    2
    44    48    47    2
    45     5     2    1
    46    54    47   am
    47     2     3    1
    48    47    46    1
    49    36    35    1
    50    73    74    2
    51    43    42    1
    52    75    74    1
    53    38    35    1
    54    38    39    1
    55    40    39    1
    56    40    41    1
    57    35    34    1
    58    46    45    1
    59    46    49    1
    60    74    76    1
    61     3     4    2
    62    30    29    2
    63    42    41    2
    64    42    44    1
    65    15    13    1
    66    34    29   am
    67    49    50    1
    68    29    28    1
    69    13    14    1
    70    13    10    1
    71    52    51    2
    72    51    53   am
    73    51    50    1
    74     9    10    1
    75    32    31    1
    76    28    31    1
    77    28    27    1
    78    19    18    2
    79    10    11    1
    80    12    11    2
    81    31    33    1
    82    18    27   am
    83    18    17    1
    84    16    17    1
    85    17    20    1
    86    20    21    1
    87    23    25   ar
    88    23    21   ar
    89    25    26   ar
    90    21    22   ar
    91    26    24   ar
    92    22    24   ar
