@<TRIPOS>MOLECULE
tmp/2hd0G00.pdb
 91 83 0 0 0
SMALL
GASTEIGER

@<TRIPOS>ATOM
      1  N         82.5670   21.3640   53.8970 N.3     8  LEU8       -0.1245
      2  CA        83.8440   20.7130   53.6920 C.3     8  LEU8        0.1561
      3  C         84.0540   19.6240   54.7280 C.2     8  LEU8        0.2260
      4  O         83.8500   19.8300   55.9270 O.2     8  LEU8       -0.2867
      5  CB        84.9860   21.7250   53.7790 C.3     8  LEU8        0.0270
      6  CG        85.0370   22.7730   52.6690 C.3     8  LEU8        0.0019
      7  CD1       86.3430   23.5600   52.7760 C.3     8  LEU8        0.0001
      8  CD2       84.9440   22.0880   51.3140 C.3     8  LEU8        0.0001
      9  N         86.4800   18.4460   56.2500 N.3    10  VAL10      -0.1245
     10  CA        87.7840   18.7100   56.8510 C.3    10  VAL10       0.1561
     11  C         87.5810   18.9800   58.3570 C.2    10  VAL10       0.2260
     12  O         86.5670   19.5410   58.7600 O.2    10  VAL10      -0.2867
     13  CB        88.4380   19.9610   56.1830 C.3    10  VAL10       0.0252
     14  CG1       89.8450   20.1810   56.7050 C.3    10  VAL10       0.0019
     15  CG2       88.4520   19.7940   54.6770 C.3    10  VAL10       0.0019
     16  N         91.3330   22.4450   61.5160 N.3    14  VAL14      -0.1231
     17  CA        92.1020   22.6260   60.2890 C.3    14  VAL14       0.1692
     18  C         91.4090   23.6450   59.3590 C.2    14  VAL14       0.2591
     19  O         92.0790   24.4130   58.6720 O.2    14  VAL14      -0.2718
     20  CB        92.2940   21.2870   59.5200 C.3    14  VAL14       0.0266
     21  CG1       93.0560   21.5420   58.2350 C.3    14  VAL14       0.0020
     22  CG2       93.0570   20.2720   60.3840 C.3    14  VAL14       0.0020
     23  N         90.0750   23.6440   59.3240 N.am   15  ARG15      -0.1980
     24  CA        89.3560   24.6020   58.4820 C.3    15  ARG15       0.1597
     25  C         89.6330   26.0210   58.9670 C.2    15  ARG15       0.2287
     26  O         89.8240   26.9370   58.1640 O.2    15  ARG15      -0.2864
     27  CB        87.8440   24.3370   58.4990 C.3    15  ARG15       0.0334
     28  CG        87.3880   23.2920   57.4830 C.3    15  ARG15       0.0492
     29  CD        85.8840   23.1180   57.4870 C.3    15  ARG15       0.2205
     30  NE        85.3970   22.3860   58.6530 N.pl3  15  ARG15      -0.0865
     31  CZ        84.4580   22.8390   59.4790 C.cat  15  ARG15       0.5346
     32  NH1       83.9000   24.0250   59.2770 N.pl3  15  ARG15       0.1354
     33  NH2       84.0810   22.1080   60.5130 N.pl3  15  ARG15       0.1354
     34  N         92.3100   27.0540   60.7600 N.3    17  GLN17      -0.1231
     35  CA        93.7040   27.3870   60.5030 C.3    17  GLN17       0.1698
     36  C         93.9070   27.7740   59.0380 C.2    17  GLN17       0.2593
     37  O         94.7190   28.6430   58.7260 O.2    17  GLN17      -0.2718
     38  CB        94.5960   26.2130   60.8780 C.3    17  GLN17       0.0381
     39  CG        96.0570   26.6130   60.8750 C.3    17  GLN17       0.0905
     40  CD        96.3840   27.5070   62.0290 C.2    17  GLN17       0.2608
     41  OE1       96.2440   27.1410   63.1960 O.2    17  GLN17      -0.2717
     42  NE2       96.8900   28.6920   61.7380 N.am   17  GLN17      -0.0878
     43  N         93.1710   27.1350   58.1370 N.am   18  GLY18      -0.1942
     44  CA        93.3070   27.4670   56.7270 C.3    18  GLY18       0.2014
     45  C         92.7070   28.8370   56.4270 C.2    18  GLY18       0.2638
     46  O         93.2720   29.6440   55.6780 O.2    18  GLY18      -0.2714
     47  N         91.5490   29.0990   57.0180 N.am   19  LEU19      -0.1977
     48  CA        90.8610   30.3650   56.8350 C.3    19  LEU19       0.1596
     49  C         91.7220   31.5320   57.3520 C.2    19  LEU19       0.2287
     50  O         91.9580   32.5110   56.6470 O.2    19  LEU19      -0.2864
     51  CB        89.5390   30.3250   57.5930 C.3    19  LEU19       0.0297
     52  CG        88.5690   31.4940   57.4450 C.3    19  LEU19       0.0022
     53  CD1       88.1410   31.6090   55.9790 C.3    19  LEU19       0.0001
     54  CD2       87.3500   31.2650   58.3470 C.3    19  LEU19       0.0001
     55  N         94.8150   31.6630   57.7850 N.3    21  ARG21      -0.1231
     56  CA        96.0810   31.8120   57.0720 C.3    21  ARG21       0.1694
     57  C         95.8470   32.7300   55.8750 C.2    21  ARG21       0.2591
     58  O         96.7210   33.5070   55.4990 O.2    21  ARG21      -0.2718
     59  CB        96.6120   30.4410   56.6000 C.3    21  ARG21       0.0321
     60  CG        98.0320   30.6550   56.0030 C.3    21  ARG21       0.0489
     61  CD        98.7520   29.3270   55.8660 C.3    21  ARG21       0.2205
     62  NE        97.9980   28.4760   54.9540 N.pl3  21  ARG21      -0.0865
     63  CZ        97.1810   27.4910   55.2890 C.cat  21  ARG21       0.5346
     64  NH1       97.0230   27.1080   56.5660 N.pl3  21  ARG21       0.1354
     65  NH2       96.4160   26.9100   54.3660 N.pl3  21  ARG21       0.1354
     66  N         94.6670   32.6240   55.2700 N.am   22  ILE22      -0.1980
     67  CA        94.3290   33.4770   54.1400 C.3    22  ILE22       0.1595
     68  C         94.1920   34.8930   54.6790 C.2    22  ILE22       0.2287
     69  O         94.6950   35.8410   54.0840 O.2    22  ILE22      -0.2864
     70  CB        92.9910   33.0760   53.4790 C.3    22  ILE22       0.0276
     71  CG1       93.0990   31.6700   52.8800 C.3    22  ILE22       0.0022
     72  CG2       92.6460   34.0720   52.3790 C.3    22  ILE22       0.0022
     73  CD1       91.7890   31.1170   52.3310 C.3    22  ILE22       0.0001
     74  N         83.9060   32.1900   54.7950 N.3    43  GLY43      -0.1225
     75  CA        84.0890   31.0360   55.6610 C.3    43  GLY43       0.1811
     76  C         82.7840   30.6580   56.3370 C.2    43  GLY43       0.2280
     77  O         82.4760   29.4710   56.4890 O.2    43  GLY43      -0.2866
     78  N         80.5140   28.6130   54.3780 N.3    46  THR46      -0.1218
     79  CA        81.0890   27.2740   54.3580 C.3    46  THR46       0.1862
     80  C         80.7500   26.4750   55.6130 C.2    46  THR46       0.2287
     81  O         80.8500   25.2500   55.6150 O.2    46  THR46      -0.2866
     82  CB        82.6260   27.3920   54.2460 C.3    46  THR46       0.1770
     83  OG1       83.0000   27.3600   52.8680 O.3    46  THR46      -0.2211
     84  CG2       83.3390   26.3010   55.0540 C.3    46  THR46       0.0375
     85  N         82.1610   27.4630   58.6840 N.3    48  THR48      -0.1218
     86  CA        83.3710   27.5460   59.5080 C.3    48  THR48       0.1862
     87  C         83.3920   28.9000   60.2260 C.2    48  THR48       0.2287
     88  O         83.4800   29.9480   59.5810 O.2    48  THR48      -0.2866
     89  CB        84.6580   27.4080   58.6480 C.3    48  THR48       0.1770
     90  OG1       84.6780   26.1270   58.0080 O.3    48  THR48      -0.2211
     91  CG2       85.9090   27.5340   59.5090 C.3    48  THR48       0.0375
@<TRIPOS>BOND
     1     8     6    1
     2    73    71    1
     3    72    70    1
     4     6     7    1
     5     6     5    1
     6    83    82    1
     7    71    70    1
     8    70    67    1
     9     2     5    1
    10     2     1    1
    11     2     3    1
    12    69    68    2
    13    67    68    1
    14    67    66    1
    15    82    79    1
    16    82    84    1
    17    79    78    1
    18    79    80    1
    19    65    63    1
    20    15    13    1
    21     3     4    2
    22    74    75    1
    23    62    63    2
    24    62    61    1
    25    66    57   am
    26    63    64    1
    27    58    57    2
    28    80    81    2
    29    75    76    1
    30    46    45    2
    31    61    60    1
    32    57    56    1
    33    53    52    1
    34    60    59    1
    35    13    14    1
    36    13    10    1
    37     9    10    1
    38    76    77    2
    39    45    44    1
    40    45    47   am
    41    59    56    1
    42    50    49    2
    43    44    43    1
    44    48    47    1
    45    48    49    1
    46    48    51    1
    47    10    11    1
    48    56    55    1
    49    52    51    1
    50    52    54    1
    51    28    29    1
    52    28    27    1
    53    29    30    1
    54    90    89    1
    55    43    36   am
    56    26    25    2
    57    21    20    1
    58    11    12    2
    59    24    27    1
    60    24    25    1
    61    24    23    1
    62    89    86    1
    63    89    91    1
    64    30    31    2
    65    19    18    2
    66    85    86    1
    67    37    36    2
    68    36    35    1
    69    32    31    1
    70    23    18   am
    71    18    17    1
    72    31    33    1
    73    86    87    1
    74    20    17    1
    75    20    22    1
    76    88    87    2
    77    17    16    1
    78    35    34    1
    79    35    38    1
    80    39    38    1
    81    39    40    1
    82    42    40   am
    83    40    41    2
