@<TRIPOS>MOLECULE
tmp/2hd6A01.pdb
 145 140 0 0 0
SMALL
GASTEIGER

@<TRIPOS>ATOM
      1  N         -3.3230    0.2910    3.6810 N.3    60  ASN60      -0.1240
      2  CA        -2.1570    1.0630    4.1130 C.3    60  ASN60       0.1653
      3  C         -0.9080    0.2200    4.3620 C.2    60  ASN60       0.2266
      4  O          0.0730    0.7030    4.9280 O.2    60  ASN60      -0.2867
      5  CB        -2.4830    1.8800    5.3720 C.3    60  ASN60       0.1155
      6  CG        -2.9500    1.0150    6.5270 C.2    60  ASN60       0.2627
      7  OD1       -2.5620   -0.1500    6.6440 O.2    60  ASN60      -0.2716
      8  ND2       -3.7730    1.5880    7.4010 N.am   60  ASN60      -0.0877
      9  N         -8.3360    0.3800    5.7390 N.3    65  ASN65      -0.1240
     10  CA        -9.1830    1.3310    6.4420 C.3    65  ASN65       0.1653
     11  C        -10.3800    1.8120    5.6420 C.2    65  ASN65       0.2266
     12  O        -10.2390    2.2350    4.4950 O.2    65  ASN65      -0.2867
     13  CB        -8.3780    2.5830    6.8280 C.3    65  ASN65       0.1155
     14  CG        -7.3880    2.3330    7.9390 C.2    65  ASN65       0.2627
     15  OD1       -6.5920    3.2110    8.2800 O.2    65  ASN65      -0.2716
     16  ND2       -7.4290    1.1440    8.5140 N.am   65  ASN65      -0.0877
     17  N        -12.6960    6.2250   11.0970 N.3    90  GLN90      -0.1245
     18  CA       -12.3570    5.0750   10.2660 C.3    90  GLN90       0.1566
     19  C        -12.4960    3.7910   11.0490 C.2    90  GLN90       0.2260
     20  O        -12.5900    3.8110   12.2730 O.2    90  GLN90      -0.2867
     21  CB       -10.9060    5.1810    9.7830 C.3    90  GLN90       0.0367
     22  CG        -9.8840    5.2710   10.9320 C.3    90  GLN90       0.0905
     23  CD        -9.0930    3.9880   11.1440 C.2    90  GLN90       0.2608
     24  OE1       -9.6190    2.8810   11.0010 O.2    90  GLN90      -0.2717
     25  NE2       -7.8230    4.1330   11.5050 N.am   90  GLN90      -0.0878
     26  N        -11.1670   -0.5720   10.8120 N.3    92  HIS92      -0.1241
     27  CA       -10.3180   -1.5400   10.1480 C.3    92  HIS92       0.1621
     28  C        -10.3820   -2.8000   10.9850 C.2    92  HIS92       0.2264
     29  O        -11.0710   -2.8320   12.0050 O.2    92  HIS92      -0.2867
     30  CB        -8.8750   -1.0390   10.1100 C.3    92  HIS92       0.0745
     31  CG        -8.3250   -0.7160   11.4640 C.ar   92  HIS92       0.0817
     32  ND1       -8.5730    0.4800   12.1040 N.ar   92  HIS92      -0.2268
     33  CD2       -7.5790   -1.4540   12.3200 C.ar   92  HIS92       0.1154
     34  CE1       -8.0020    0.4650   13.2960 C.ar   92  HIS92       0.1986
     35  NE2       -7.3920   -0.6970   13.4510 N.ar   92  HIS92      -0.2212
     36  N         -8.0700   -6.6160   12.2680 N.3    94  HIS94      -0.1241
     37  CA        -6.8120   -7.3070   12.5220 C.3    94  HIS94       0.1621
     38  C         -7.2520   -8.7610   12.4250 C.2    94  HIS94       0.2264
     39  O         -8.2670   -9.1390   13.0120 O.2    94  HIS94      -0.2867
     40  CB        -6.3020   -7.0090   13.9300 C.3    94  HIS94       0.0745
     41  CG        -5.9570   -5.5720   14.1470 C.ar   94  HIS94       0.0817
     42  ND1       -4.7120   -5.0530   13.8620 N.ar   94  HIS94      -0.2268
     43  CD2       -6.7100   -4.5340   14.5810 C.ar   94  HIS94       0.1154
     44  CE1       -4.7130   -3.7550   14.1150 C.ar   94  HIS94       0.1986
     45  NE2       -5.9130   -3.4160   14.5510 N.ar   94  HIS94      -0.2212
     46  N        -12.0200   -2.6900   14.6170 N.3   117  HIS117     -0.1241
     47  CA       -11.7300   -1.4950   15.3870 C.3   117  HIS117      0.1621
     48  C        -12.3820   -0.2770   14.7500 C.2   117  HIS117      0.2264
     49  O        -12.0350    0.1070   13.6340 O.2   117  HIS117     -0.2867
     50  CB       -10.2130   -1.2810   15.4820 C.3   117  HIS117      0.0745
     51  CG        -9.5290   -2.2250   16.4230 C.ar  117  HIS117      0.0817
     52  ND1       -8.1590   -2.3810   16.4590 N.ar  117  HIS117     -0.2268
     53  CD2      -10.0260   -3.0570   17.3690 C.ar  117  HIS117      0.1154
     54  CE1       -7.8430   -3.2690   17.3850 C.ar  117  HIS117      0.1986
     55  NE2       -8.9570   -3.6940   17.9520 N.ar  117  HIS117     -0.2212
     56  N        -12.5980    3.4640   15.0600 N.3   119  VAL119     -0.1245
     57  CA       -11.8350    4.5580   15.6590 C.3   119  VAL119      0.1561
     58  C        -12.5700    5.8920   15.7120 C.2   119  VAL119      0.2260
     59  O        -13.0800    6.3590   14.6970 O.2   119  VAL119     -0.2867
     60  CB       -10.5160    4.7480   14.8790 C.3   119  VAL119      0.0252
     61  CG1       -9.5980    5.7190   15.6040 C.3   119  VAL119      0.0019
     62  CG2       -9.8460    3.4040   14.6810 C.3   119  VAL119      0.0019
     63  N         -8.6620   14.8880   14.6320 N.3   128  PHE128     -0.1241
     64  CA        -7.8780   13.7130   14.9810 C.3   128  PHE128      0.1605
     65  C         -6.4360   14.0400   15.3570 C.2   128  PHE128      0.2264
     66  O         -5.9180   13.5250   16.3510 O.2   128  PHE128     -0.2867
     67  CB        -7.9110   12.7080   13.8230 C.3   128  PHE128      0.0534
     68  CG        -7.1560   11.4390   14.0960 C.ar  128  PHE128     -0.0203
     69  CD1       -5.8030   11.3370   13.7860 C.ar  128  PHE128     -0.0042
     70  CD2       -7.8000   10.3430   14.6630 C.ar  128  PHE128     -0.0042
     71  CE1       -5.1000   10.1620   14.0330 C.ar  128  PHE128     -0.0003
     72  CE2       -7.1080    9.1610   14.9160 C.ar  128  PHE128     -0.0003
     73  CZ        -5.7540    9.0700   14.6000 C.ar  128  PHE128     -0.0000
     74  N         -4.8710   12.9660   19.1870 N.3   132  VAL132     -0.1245
     75  CA        -3.8350   11.9910   19.5120 C.3   132  VAL132      0.1561
     76  C         -2.6800   12.5940   20.3100 C.2   132  VAL132      0.2260
     77  O         -1.6190   11.9850   20.4560 O.2   132  VAL132     -0.2867
     78  CB        -3.2910   11.2910   18.2430 C.3   132  VAL132      0.0252
     79  CG1       -4.4090   10.5010   17.5820 C.3   132  VAL132      0.0019
     80  CG2       -2.7240   12.3100   17.2740 C.3   132  VAL132      0.0019
     81  N        -11.7760    3.7420   20.9230 N.3   140  VAL140     -0.1245
     82  CA       -11.8740    2.7160   19.9020 C.3   140  VAL140      0.1561
     83  C        -12.8390    1.6480   20.3750 C.2   140  VAL140      0.2260
     84  O        -12.7100    1.1160   21.4790 O.2   140  VAL140     -0.2867
     85  CB       -10.5070    2.0680   19.5890 C.3   140  VAL140      0.0252
     86  CG1      -10.6710    1.0320   18.4760 C.3   140  VAL140      0.0019
     87  CG2       -9.5090    3.1360   19.1520 C.3   140  VAL140      0.0019
     88  N         -2.8690    2.9520   20.9700 N.3   195  LEU195     -0.1231
     89  CA        -3.0520    2.4980   19.6060 C.3   195  LEU195      0.1693
     90  C         -2.2910    1.1750   19.6440 C.2   195  LEU195      0.2593
     91  O         -1.3060    1.0520   20.3790 O.2   195  LEU195     -0.2718
     92  CB        -2.3720    3.4540   18.6250 C.3   195  LEU195      0.0284
     93  CG        -2.8660    4.9010   18.5820 C.3   195  LEU195      0.0019
     94  CD1       -2.0070    5.7020   17.6140 C.3   195  LEU195      0.0001
     95  CD2       -4.3270    4.9300   18.1580 C.3   195  LEU195      0.0001
     96  N         -2.7260    0.1910   18.8670 N.am  196  THR196     -0.1939
     97  CA        -2.0530   -1.1060   18.8680 C.3   196  THR196      0.2028
     98  C         -0.9870   -1.2350   17.7850 C.2   196  THR196      0.2643
     99  O         -0.4060   -2.3070   17.6020 O.2   196  THR196     -0.2714
    100  CB        -3.0470   -2.2510   18.6890 C.3   196  THR196      0.1808
    101  OG1       -3.6340   -2.1590   17.3900 O.3   196  THR196     -0.2208
    102  CG2       -4.1370   -2.1870   19.7560 C.3   196  THR196      0.0379
    103  N         -0.7460   -0.1520   17.0570 N.am  197  THR197     -0.1937
    104  CA         0.2840   -0.1460   16.0250 C.3   197  THR197      0.2013
    105  C          1.0750    1.1370   16.1980 C.2   197  THR197      0.2484
    106  O          0.5930    2.0920   16.8060 O.2   197  THR197     -0.2729
    107  CB        -0.3050   -0.1270   14.5950 C.3   197  THR197      0.1807
    108  OG1       -0.8610    1.1670   14.3250 O.3   197  THR197     -0.2208
    109  CG2       -1.3920   -1.1810   14.4440 C.3   197  THR197      0.0379
    110  N          2.3150    1.1710   15.6920 N.am  198  PRO198     -0.2715
    111  CA         3.0740    2.4130   15.8440 C.3   198  PRO198      0.1521
    112  C          2.2020    3.5350   15.2820 C.2   198  PRO198      0.2440
    113  O          1.4580    3.3180   14.3230 O.2   198  PRO198     -0.2731
    114  CB         4.3090    2.1540   14.9960 C.3   198  PRO198      0.0310
    115  CG         4.5560    0.6930   15.2450 C.3   198  PRO198      0.0237
    116  CD         3.1570    0.0920   15.1460 C.3   198  PRO198      0.0939
    117  N          2.2900    4.7510   15.8490 N.am  199  PRO199     -0.2727
    118  CA         3.1300    5.2220   16.9550 C.3   199  PRO199      0.1402
    119  C          2.7810    4.7560   18.3730 C.2   199  PRO199      0.2269
    120  O          3.3790    5.2340   19.3360 O.2   199  PRO199     -0.2865
    121  CB         3.0420    6.7350   16.8180 C.3   199  PRO199      0.0296
    122  CG         1.6310    6.9240   16.3900 C.3   199  PRO199      0.0237
    123  CD         1.4580    5.8530   15.3290 C.3   199  PRO199      0.0939
    124  N          0.5280    5.4800   20.4300 N.3   201  LEU201     -0.1245
    125  CA         0.1790    6.5610   21.3470 C.3   201  LEU201      0.1561
    126  C         -0.8430    6.1500   22.4100 C.2   201  LEU201      0.2260
    127  O         -1.8090    5.4440   22.1280 O.2   201  LEU201     -0.2867
    128  CB        -0.3430    7.7580   20.5490 C.3   201  LEU201      0.0270
    129  CG         0.6350    8.2420   19.4730 C.3   201  LEU201      0.0019
    130  CD1       -0.0120    9.3200   18.6120 C.3   201  LEU201      0.0001
    131  CD2        1.8980    8.7600   20.1390 C.3   201  LEU201      0.0001
    132  N        -10.4210    2.3090   25.5120 N.3   206  TRP206     -0.1241
    133  CA       -10.9020    1.1240   24.8180 C.3   206  TRP206      0.1605
    134  C        -12.2370    0.6310   25.3260 C.2   206  TRP206      0.2264
    135  O        -12.4750    0.5510   26.5300 O.2   206  TRP206     -0.2867
    136  CB        -9.8880   -0.0210   24.9180 C.3   206  TRP206      0.0550
    137  CG        -8.7780    0.0920   23.9390 C.ar  206  TRP206      0.0003
    138  CD1       -7.5610    0.6820   24.1310 C.ar  206  TRP206      0.0946
    139  CD2       -8.8020   -0.3530   22.5810 C.ar  206  TRP206      0.0152
    140  NE1       -6.8240    0.6340   22.9680 N.ar  206  TRP206     -0.2442
    141  CE2       -7.5630    0.0020   22.0030 C.ar  206  TRP206      0.0810
    142  CE3       -9.7530   -1.0170   21.7940 C.ar  206  TRP206      0.0012
    143  CZ2       -7.2500   -0.2860   20.6720 C.ar  206  TRP206      0.0191
    144  CZ3       -9.4400   -1.3040   20.4720 C.ar  206  TRP206      0.0001
    145  CH2       -8.1980   -0.9380   19.9270 C.ar  206  TRP206      0.0015
@<TRIPOS>BOND
     1     1     2    1
     2     2     3    1
     3     2     5    1
     4     3     4    2
     5    12    11    2
     6     5     6    1
     7    11    10    1
     8     9    10    1
     9    10    13    1
    10     6     7    2
    11     6     8   am
    12    13    14    1
    13    14    15    2
    14    14    16   am
    15    21    18    1
    16    21    22    1
    17    30    27    1
    18    30    31    1
    19    27    26    1
    20    27    28    1
    21    18    19    1
    22    18    17    1
    23    22    23    1
    24    28    29    2
    25    24    23    2
    26    19    20    2
    27    23    25   am
    28    31    32   ar
    29    31    33   ar
    30    32    34   ar
    31    36    37    1
    32    33    35   ar
    33    38    37    1
    34    38    39    2
    35    37    40    1
    36    34    35   ar
    37    49    48    2
    38    69    71   ar
    39    69    68   ar
    40    67    68    1
    41    67    64    1
    42    42    44   ar
    43    42    41   ar
    44    40    41    1
    45    71    73   ar
    46    68    70   ar
    47    44    45   ar
    48    41    43   ar
    49   113   112    2
    50   108   107    1
    51   109   107    1
    52    45    43   ar
    53   107   104    1
    54    73    72   ar
    55    46    47    1
    56    63    64    1
    57    70    72   ar
    58    62    60    1
    59    59    58    2
    60    48    47    1
    61    60    61    1
    62    60    57    1
    63    64    65    1
    64   114   115    1
    65   114   111    1
    66    56    57    1
    67   116   115    1
    68   116   110    1
    69   112   111    1
    70   112   117   am
    71   123   117    1
    72   123   122    1
    73    65    66    2
    74    47    50    1
    75    50    51    1
    76    57    58    1
    77   110   111    1
    78   110   105   am
    79   117   118    1
    80   104   105    1
    81   104   103    1
    82   105   106    2
    83   122   121    1
    84    51    52   ar
    85    51    53   ar
    86    52    54   ar
    87   121   118    1
    88   118   119    1
    89   103    98   am
    90    80    78    1
    91    53    55   ar
    92    54    55   ar
    93   101   100    1
    94    79    78    1
    95    99    98    2
    96    94    93    1
    97    98    97    1
    98    95    93    1
    99    78    75    1
   100   119   120    2
   101    86    85    1
   102    93    92    1
   103   130   129    1
   104    92    89    1
   105   100    97    1
   106   100   102    1
   107    96    97    1
   108    96    90   am
   109    87    85    1
   110    74    75    1
   111   129   131    1
   112   129   128    1
   113    75    76    1
   114    85    82    1
   115    89    90    1
   116    89    88    1
   117    90    91    2
   118    82    83    1
   119    82    81    1
   120   145   144   ar
   121   145   143   ar
   122    76    77    2
   123    83    84    2
   124   124   125    1
   125   144   142   ar
   126   128   125    1
   127   143   141   ar
   128   125   126    1
   129   142   139   ar
   130   141   139   ar
   131   141   140   ar
   132   127   126    2
   133   139   137   ar
   134   140   138   ar
   135   137   138   ar
   136   137   136    1
   137   133   136    1
   138   133   134    1
   139   133   132    1
   140   134   135    2
