@<TRIPOS>MOLECULE
tmp/2hd9A00.pdb
 92 93 0 0 0
SMALL
GASTEIGER

@<TRIPOS>ATOM
      1  N         28.0440   33.0670   17.6820 N.3    25  PRO25      -0.2116
      2  CA        28.6890   34.0470   18.5610 C.3    25  PRO25       0.1372
      3  C         30.1440   33.6470   18.7700 C.2    25  PRO25       0.2244
      4  O         30.5510   32.5350   18.4280 O.2    25  PRO25      -0.2868
      5  CB        27.8930   33.9470   19.8640 C.3    25  PRO25       0.0268
      6  CG        26.6630   33.1540   19.5170 C.3    25  PRO25       0.0207
      7  CD        27.1270   32.2130   18.4470 C.3    25  PRO25       0.0892
      8  N         31.9250   32.6020   21.3060 N.3    27  LYS27      -0.1231
      9  CA        32.2390   31.3590   22.0100 C.3    27  LYS27       0.1693
     10  C         32.1870   30.1190   21.1200 C.2    27  LYS27       0.2592
     11  O         32.7300   29.0730   21.4840 O.2    27  LYS27      -0.2718
     12  CB        31.3140   31.1660   23.2180 C.3    27  LYS27       0.0285
     13  CG        29.8540   30.9140   22.8750 C.3    27  LYS27       0.0035
     14  CD        29.0400   30.4690   24.0910 C.3    27  LYS27       0.0206
     15  CE        29.1990   31.4220   25.2700 C.3    27  LYS27       0.1093
     16  NZ        29.0670   32.8510   24.8660 N.3    27  LYS27      -0.1314
     17  N         31.5520   30.2340   19.9560 N.am   28  HIS28      -0.1976
     18  CA        31.4420   29.1040   19.0380 C.3    28  HIS28       0.1656
     19  C         32.1840   29.3060   17.7210 C.2    28  HIS28       0.2291
     20  O         32.0810   28.4880   16.7990 O.2    28  HIS28      -0.2864
     21  CB        29.9650   28.7970   18.7910 C.3    28  HIS28       0.0771
     22  CG        29.2480   28.3400   20.0210 C.ar   28  HIS28       0.0820
     23  ND1       28.0830   28.9210   20.4730 N.ar   28  HIS28      -0.2267
     24  CD2       29.5580   27.3720   20.9160 C.ar   28  HIS28       0.1154
     25  CE1       27.7080   28.3300   21.5940 C.ar   28  HIS28       0.1986
     26  NE2       28.5860   27.3880   21.8830 N.ar   28  HIS28      -0.2212
     27  N         18.8250   38.6470   18.6810 N.3    80  PRO80      -0.2102
     28  CA        19.5320   38.0350   19.8170 C.3    80  PRO80       0.1504
     29  C         18.6300   37.0380   20.5360 C.2    80  PRO80       0.2576
     30  O         17.6000   37.4200   21.0980 O.2    80  PRO80      -0.2718
     31  CB        19.8890   39.2390   20.6780 C.3    80  PRO80       0.0282
     32  CG        20.1470   40.2980   19.6400 C.3    80  PRO80       0.0208
     33  CD        18.9900   40.1120   18.6900 C.3    80  PRO80       0.0893
     34  N         19.0220   35.7660   20.5310 N.am   81  HIS81      -0.1962
     35  CA        18.1820   34.7360   21.1250 C.3    81  HIS81       0.1787
     36  C         18.0490   34.7320   22.6440 C.2    81  HIS81       0.2620
     37  O         17.2030   34.0240   23.1830 O.2    81  HIS81      -0.2715
     38  CB        18.5880   33.3390   20.6110 C.3    81  HIS81       0.0785
     39  CG        19.8060   32.7570   21.2610 C.ar   81  HIS81       0.0821
     40  ND1       21.0880   33.1730   20.9680 N.ar   81  HIS81      -0.2267
     41  CD2       19.9340   31.7460   22.1530 C.ar   81  HIS81       0.1154
     42  CE1       21.9520   32.4400   21.6470 C.ar   81  HIS81       0.1986
     43  NE2       21.2780   31.5660   22.3740 N.ar   81  HIS81      -0.2212
     44  N         18.8630   35.5210   23.3330 N.am   82  ARG82      -0.1963
     45  CA        18.7670   35.5900   24.7900 C.3    82  ARG82       0.1729
     46  C         18.5580   37.0310   25.2470 C.2    82  ARG82       0.2617
     47  O         18.9040   37.3960   26.3690 O.2    82  ARG82      -0.2715
     48  CB        20.0180   34.9960   25.4450 C.3    82  ARG82       0.0348
     49  CG        20.2940   33.5550   25.0350 C.3    82  ARG82       0.0492
     50  CD        21.4930   32.9890   25.7700 C.3    82  ARG82       0.2205
     51  NE        21.1260   32.4610   27.0790 N.pl3  82  ARG82      -0.0865
     52  CZ        22.0080   32.0930   28.0040 C.cat  82  ARG82       0.5346
     53  NH1       23.3070   32.2020   27.7630 N.pl3  82  ARG82       0.1354
     54  NH2       21.5910   31.6030   29.1590 N.pl3  82  ARG82       0.1354
     55  N         18.0000   37.8490   24.3590 N.am   83  GLY83      -0.1940
     56  CA        17.7200   39.2350   24.6950 C.3    83  GLY83       0.2014
     57  C         18.8780   40.2150   24.7480 C.2    83  GLY83       0.2639
     58  O         18.7020   41.3450   25.2120 O.2    83  GLY83      -0.2714
     59  N         20.0520   39.8060   24.2790 N.am   84  GLY84      -0.1939
     60  CA        21.2010   40.6930   24.2940 C.3    84  GLY84       0.2014
     61  C         21.2810   41.5540   23.0460 C.2    84  GLY84       0.2639
     62  O         20.2590   41.9380   22.4800 O.2    84  GLY84      -0.2714
     63  N         22.5030   41.8550   22.6250 N.am   85  LYS85      -0.1963
     64  CA        22.7340   42.6650   21.4310 C.3    85  LYS85       0.1728
     65  C         23.6180   41.9040   20.4480 C.2    85  LYS85       0.2616
     66  O         24.1430   42.4720   19.4890 O.2    85  LYS85      -0.2715
     67  CB        23.4030   43.9830   21.8190 C.3    85  LYS85       0.0311
     68  CG        22.6130   44.7770   22.8410 C.3    85  LYS85       0.0038
     69  CD        23.2790   46.1070   23.1420 C.3    85  LYS85       0.0206
     70  CE        22.5210   46.8570   24.2270 C.3    85  LYS85       0.1093
     71  NZ        21.0900   47.0460   23.8670 N.3    85  LYS85      -0.1314
     72  N         23.7650   40.6090   20.7060 N.am   86  GLU86      -0.1977
     73  CA        24.5740   39.7150   19.8840 C.3    86  GLU86       0.1602
     74  C         24.2750   39.8130   18.3910 C.2    86  GLU86       0.2287
     75  O         23.1110   39.8440   17.9870 O.2    86  GLU86      -0.2864
     76  CB        24.3480   38.2710   20.3370 C.3    86  GLU86       0.0415
     77  CG        25.0900   37.2390   19.5030 C.3    86  GLU86       0.1163
     78  CD        26.5910   37.3610   19.6390 C.2    86  GLU86       0.3649
     79  OE1       27.0740   37.3380   20.7850 O.co2  86  GLU86      -0.2457
     80  OE2       27.2950   37.4720   18.6210 O.co2  86  GLU86      -0.2457
     81  N         26.1050   37.6260   16.1080 N.3    88  TYR88      -0.1241
     82  CA        26.4830   36.3310   15.5070 C.3    88  TYR88       0.1605
     83  C         27.2770   36.6540   14.2420 C.2    88  TYR88       0.2264
     84  O         26.8990   36.2540   13.1340 O.2    88  TYR88      -0.2867
     85  CB        25.2340   35.5250   15.1310 C.3    88  TYR88       0.0534
     86  CG        24.2440   35.3740   16.2610 C.ar   88  TYR88      -0.0201
     87  CD1       24.3890   34.3660   17.2200 C.ar   88  TYR88      -0.0009
     88  CD2       23.1920   36.2770   16.4110 C.ar   88  TYR88      -0.0009
     89  CE1       23.5140   34.2730   18.2950 C.ar   88  TYR88       0.0417
     90  CE2       22.3190   36.1920   17.4800 C.ar   88  TYR88       0.0417
     91  CZ        22.4830   35.1920   18.4190 C.ar   88  TYR88       0.1957
     92  OH        21.6170   35.1450   19.4860 O.3    88  TYR88      -0.2866
@<TRIPOS>BOND
     1    84    83    2
     2    83    82    1
     3    85    82    1
     4    85    86    1
     5    82    81    1
     6    86    88   ar
     7    86    87   ar
     8    88    90   ar
     9    20    19    2
    10    87    89   ar
    11    90    91   ar
    12     1     7    1
    13     1     2    1
    14    19    18    1
    15    75    74    2
    16    89    91   ar
    17    74    73    1
    18    91    92    1
    19     4     3    2
    20     7     6    1
    21     2     3    1
    22     2     5    1
    23    80    78   ar
    24    27    33    1
    25    27    28    1
    26    33    32    1
    27    21    18    1
    28    21    22    1
    29    18    17    1
    30    66    65    2
    31    77    78    1
    32    77    76    1
    33     6     5    1
    34    78    79   ar
    35    32    31    1
    36    28    29    1
    37    28    31    1
    38    73    76    1
    39    73    72    1
    40    17    10   am
    41    22    23   ar
    42    22    24   ar
    43    65    72   am
    44    65    64    1
    45    23    25   ar
    46    34    29   am
    47    34    35    1
    48    29    30    2
    49    38    35    1
    50    38    39    1
    51    24    26   ar
    52    40    39   ar
    53    40    42   ar
    54    10    11    2
    55    10     9    1
    56    35    36    1
    57    39    41   ar
    58     8     9    1
    59    64    67    1
    60    64    63    1
    61    25    26   ar
    62    42    43   ar
    63    67    68    1
    64     9    12    1
    65    41    43   ar
    66    62    61    2
    67    63    61   am
    68    36    37    2
    69    36    44   am
    70    68    69    1
    71    13    12    1
    72    13    14    1
    73    61    60    1
    74    69    70    1
    75    44    45    1
    76    71    70    1
    77    14    15    1
    78    59    60    1
    79    59    57   am
    80    55    56    1
    81    55    46   am
    82    56    57    1
    83    57    58    2
    84    45    46    1
    85    45    48    1
    86    16    15    1
    87    49    48    1
    88    49    50    1
    89    46    47    2
    90    50    51    1
    91    51    52    2
    92    53    52    1
    93    52    54    1
