@<TRIPOS>MOLECULE
tmp/2hdbA00.pdb
 157 149 0 0 0
SMALL
GASTEIGER

@<TRIPOS>ATOM
      1  N         18.0280   31.9360   32.7010 N.3    79  GLU79      -0.1245
      2  CA        16.7850   31.6510   31.9920 C.3    79  GLU79       0.1567
      3  C         15.8820   32.8490   32.2700 C.2    79  GLU79       0.2260
      4  O         14.6640   32.7740   32.1520 O.2    79  GLU79      -0.2867
      5  CB        16.1350   30.3500   32.4700 C.3    79  GLU79       0.0388
      6  CG        15.8490   30.2470   33.9570 C.3    79  GLU79       0.1160
      7  CD        15.0460   28.9960   34.2840 C.2    79  GLU79       0.3649
      8  OE1       13.9310   28.8480   33.7370 O.co2  79  GLU79      -0.2457
      9  OE2       15.5240   28.1580   35.0750 O.co2  79  GLU79      -0.2457
     10  N         17.4400   25.6230   34.5450 N.3   111  CYS111     -0.1235
     11  CA        18.2860   25.9470   35.6800 C.3   111  CYS111      0.1677
     12  C         19.6180   25.1940   35.6280 C.2   111  CYS111      0.2270
     13  O         20.3140   25.0820   36.6280 O.2   111  CYS111     -0.2867
     14  CB        17.5270   25.6720   36.9890 C.3   111  CYS111      0.0956
     15  SG        16.3290   24.3000   36.9380 S.3   111  CYS111     -0.0801
     16  N          6.7590   33.7970   39.9920 N.3   143  TYR143     -0.1241
     17  CA         5.6580   32.9870   39.4910 C.3   143  TYR143      0.1605
     18  C          4.3520   33.7680   39.4710 C.2   143  TYR143      0.2264
     19  O          3.4520   33.4690   38.6870 O.2   143  TYR143     -0.2867
     20  CB         5.5170   31.7300   40.3460 C.3   143  TYR143      0.0534
     21  CG         6.6740   30.7720   40.1720 C.ar  143  TYR143     -0.0201
     22  CD1        6.7870   29.9890   39.0220 C.ar  143  TYR143     -0.0009
     23  CD2        7.6630   30.6540   41.1510 C.ar  143  TYR143     -0.0009
     24  CE1        7.8510   29.1070   38.8520 C.ar  143  TYR143      0.0417
     25  CE2        8.7330   29.7800   40.9900 C.ar  143  TYR143      0.0417
     26  CZ         8.8210   29.0070   39.8380 C.ar  143  TYR143      0.1957
     27  OH         9.8740   28.1340   39.6780 O.3   143  TYR143     -0.2866
     28  N          0.5470   29.2590   42.6630 N.3   148  GLY148     -0.1210
     29  CA         0.9770   28.0550   43.3470 C.3   148  GLY148      0.1956
     30  C          2.4730   28.0480   43.6040 C.2   148  GLY148      0.2612
     31  O          2.9300   27.5580   44.6350 O.2   148  GLY148     -0.2717
     32  N          3.2370   28.6080   42.6710 N.am  149  GLY149     -0.1956
     33  CA         4.6830   28.6330   42.8230 C.3   149  GLY149      0.1869
     34  C          5.2530   29.7590   43.6710 C.2   149  GLY149      0.2309
     35  O          6.4170   29.6940   44.0810 O.2   149  GLY149     -0.2863
     36  N          8.0690   29.5720   46.4100 N.3   152  THR152     -0.1218
     37  CA         9.3590   29.0170   46.0130 C.3   152  THR152      0.1862
     38  C         10.2020   30.0470   45.2560 C.2   152  THR152      0.2287
     39  O         11.2710   29.7260   44.7370 O.2   152  THR152     -0.2866
     40  CB         9.1690   27.7710   45.1230 C.3   152  THR152      0.1770
     41  OG1        8.6170   28.1650   43.8640 O.3   152  THR152     -0.2211
     42  CG2        8.2080   26.7830   45.7760 C.3   152  THR152      0.0375
     43  N          8.3290   19.9670   31.7960 N.3   184  ASP184     -0.1225
     44  CA         8.0160   20.1120   33.2120 C.3   184  ASP184      0.1805
     45  C          7.8830   21.5930   33.5550 C.2   184  ASP184      0.2597
     46  O          6.9840   21.9960   34.2960 O.2   184  ASP184     -0.2718
     47  CB         9.1150   19.4630   34.0650 C.3   184  ASP184      0.1424
     48  CG        10.5080   19.9590   33.7080 C.2   184  ASP184      0.3668
     49  OD1       10.8220   20.0600   32.4950 O.co2 184  ASP184     -0.2456
     50  OD2       11.2930   20.2400   34.6400 O.co2 184  ASP184     -0.2456
     51  N          8.7800   22.3930   32.9850 N.am  185  PHE185     -0.1976
     52  CA         8.8270   23.8390   33.2030 C.3   185  PHE185      0.1639
     53  C          9.4000   24.4600   31.9340 C.2   185  PHE185      0.2290
     54  O         10.4280   24.0160   31.4190 O.2   185  PHE185     -0.2864
     55  CB         9.7360   24.1360   34.4130 C.3   185  PHE185      0.0560
     56  CG         9.9970   25.6140   34.6640 C.ar  185  PHE185     -0.0200
     57  CD1        9.6210   26.1950   35.8770 C.ar  185  PHE185     -0.0042
     58  CD2       10.7430   26.3820   33.7620 C.ar  185  PHE185     -0.0042
     59  CE1        9.9570   27.5250   36.1800 C.ar  185  PHE185     -0.0003
     60  CE2       11.0840   27.7100   34.0530 C.ar  185  PHE185     -0.0003
     61  CZ        10.7070   28.2750   35.2720 C.ar  185  PHE185     -0.0000
     62  N          4.2160   25.8190   34.0450 N.3   196  VAL196     -0.1245
     63  CA         4.6560   24.7530   34.9300 C.3   196  VAL196      0.1561
     64  C          3.6880   23.5900   35.0160 C.2   196  VAL196      0.2260
     65  O          2.4890   23.7820   35.1800 O.2   196  VAL196     -0.2867
     66  CB         4.8780   25.2890   36.3640 C.3   196  VAL196      0.0252
     67  CG1        5.2600   24.1500   37.2980 C.3   196  VAL196      0.0019
     68  CG2        5.9540   26.3620   36.3570 C.3   196  VAL196      0.0019
     69  N          3.2370   21.0090   37.4140 N.3   198  GLY198     -0.1225
     70  CA         3.6050   20.5690   38.7510 C.3   198  GLY198      0.1811
     71  C          3.9640   19.1060   38.9600 C.2   198  GLY198      0.2280
     72  O          5.0960   18.7900   39.3350 O.2   198  GLY198     -0.2866
     73  N          6.9670   18.0730   36.9470 N.3   201  SER201     -0.1217
     74  CA         8.1830   18.7220   37.4170 C.3   201  SER201      0.1889
     75  C          8.7430   17.9030   38.5800 C.2   201  SER201      0.2288
     76  O          9.9270   17.5450   38.6090 O.2   201  SER201     -0.2866
     77  CB         7.8580   20.1490   37.8740 C.3   201  SER201      0.2089
     78  OG         8.9510   20.7430   38.5500 O.3   201  SER201     -0.2183
     79  N         12.2780   15.6360   38.2820 N.3   205  TYR205     -0.1241
     80  CA        13.4110   16.0210   39.1230 C.3   205  TYR205      0.1605
     81  C         13.8780   14.8000   39.9150 C.2   205  TYR205      0.2264
     82  O         15.0530   14.4390   39.8940 O.2   205  TYR205     -0.2867
     83  CB        13.0030   17.1600   40.0710 C.3   205  TYR205      0.0534
     84  CG        14.0490   17.5470   41.1060 C.ar  205  TYR205     -0.0201
     85  CD1       14.0930   16.9150   42.3520 C.ar  205  TYR205     -0.0009
     86  CD2       15.0020   18.5330   40.8340 C.ar  205  TYR205     -0.0009
     87  CE1       15.0550   17.2560   43.3010 C.ar  205  TYR205      0.0417
     88  CE2       15.9770   18.8810   41.7790 C.ar  205  TYR205      0.0417
     89  CZ        15.9960   18.2390   43.0080 C.ar  205  TYR205      0.1957
     90  OH        16.9460   18.5750   43.9480 O.3   205  TYR205     -0.2866
     91  N         20.5490   20.9240   43.1330 N.3   233  HIS233     -0.1241
     92  CA        19.8380   22.0700   42.5930 C.3   233  HIS233      0.1621
     93  C         18.5120   21.8350   43.3010 C.2   233  HIS233      0.2264
     94  O         18.0760   20.6940   43.4090 O.2   233  HIS233     -0.2867
     95  CB        19.5440   21.9410   41.1020 C.3   233  HIS233      0.0745
     96  CG        18.3480   22.7330   40.6760 C.ar  233  HIS233      0.0817
     97  ND1       18.3810   24.0980   40.5200 N.ar  233  HIS233     -0.2268
     98  CD2       17.0540   22.3640   40.4890 C.ar  233  HIS233      0.1154
     99  CE1       17.1630   24.5430   40.2580 C.ar  233  HIS233      0.1986
    100  NE2       16.3420   23.5080   40.2360 N.ar  233  HIS233     -0.2212
    101  N         14.3390   23.4380   43.8500 N.3   235  PRO235     -0.2102
    102  CA        13.3330   24.4720   43.5810 C.3   235  PRO235      0.1504
    103  C         12.9230   25.0060   44.9620 C.2   235  PRO235      0.2575
    104  O         12.5330   26.1670   45.1120 O.2   235  PRO235     -0.2718
    105  CB        12.2190   23.7000   42.8720 C.3   235  PRO235      0.0282
    106  CG        12.3610   22.2980   43.4070 C.3   235  PRO235      0.0208
    107  CD        13.8590   22.1060   43.4390 C.3   235  PRO235      0.0893
    108  N         13.0460   24.1220   45.9550 N.am  236  TYR236     -0.1977
    109  CA        12.7720   24.3800   47.3660 C.3   236  TYR236      0.1639
    110  C         13.3330   23.1630   48.1040 C.2   236  TYR236      0.2290
    111  O         13.3340   22.0620   47.5690 O.2   236  TYR236     -0.2864
    112  CB        11.2670   24.5930   47.6190 C.3   236  TYR236      0.0560
    113  CG        10.3630   23.4920   47.1290 C.ar  236  TYR236     -0.0198
    114  CD1       10.0040   22.4280   47.9610 C.ar  236  TYR236     -0.0009
    115  CD2        9.8450   23.5230   45.8340 C.ar  236  TYR236     -0.0009
    116  CE1        9.1500   21.4320   47.5190 C.ar  236  TYR236      0.0417
    117  CE2        8.9840   22.5230   45.3760 C.ar  236  TYR236      0.0417
    118  CZ         8.6410   21.4840   46.2280 C.ar  236  TYR236      0.1957
    119  OH         7.7650   20.5150   45.8000 O.3   236  TYR236     -0.2866
    120  N         14.4040   29.9770   45.3190 N.3   275  ASN275     -0.1240
    121  CA        14.9590   29.3750   44.1100 C.3   275  ASN275      0.1653
    122  C         15.7660   30.3890   43.2980 C.2   275  ASN275      0.2266
    123  O         15.2600   31.4550   42.9550 O.2   275  ASN275     -0.2867
    124  CB        13.8320   28.8180   43.2360 C.3   275  ASN275      0.1155
    125  CG        14.3340   27.8380   42.1860 C.2   275  ASN275      0.2627
    126  OD1       15.5360   27.7360   41.9320 O.2   275  ASN275     -0.2716
    127  ND2       13.4080   27.1120   41.5690 N.am  275  ASN275     -0.0877
    128  N         17.2330   29.3070   40.4780 N.3   277  TYR277     -0.1241
    129  CA        17.3060   28.6230   39.1860 C.3   277  TYR277      0.1605
    130  C         18.7420   28.1560   38.9280 C.2   277  TYR277      0.2264
    131  O         19.2480   27.2990   39.6510 O.2   277  TYR277     -0.2867
    132  CB        16.8330   29.5120   38.0280 C.3   277  TYR277      0.0534
    133  CG        15.3270   29.7420   37.9570 C.ar  277  TYR277     -0.0201
    134  CD1       14.4170   28.7910   38.4400 C.ar  277  TYR277     -0.0009
    135  CD2       14.8160   30.9040   37.3770 C.ar  277  TYR277     -0.0009
    136  CE1       13.0340   28.9990   38.3450 C.ar  277  TYR277      0.0417
    137  CE2       13.4400   31.1220   37.2720 C.ar  277  TYR277      0.0417
    138  CZ        12.5560   30.1710   37.7580 C.ar  277  TYR277      0.1957
    139  OH        11.2060   30.4140   37.6650 O.3   277  TYR277     -0.2866
    140  N         20.3560   20.0510   38.0580 N.3   306  TYR306     -0.1241
    141  CA        19.1360   19.7440   37.3410 C.3   306  TYR306      0.1605
    142  C         18.7570   20.9460   36.5180 C.2   306  TYR306      0.2264
    143  O         18.9190   22.0910   36.9510 O.2   306  TYR306     -0.2867
    144  CB        17.9750   19.4490   38.2910 C.3   306  TYR306      0.0534
    145  CG        16.6680   19.1890   37.5630 C.ar  306  TYR306     -0.0201
    146  CD1       16.4040   17.9430   36.9900 C.ar  306  TYR306     -0.0009
    147  CD2       15.6900   20.1820   37.4600 C.ar  306  TYR306     -0.0009
    148  CE1       15.2000   17.6860   36.3410 C.ar  306  TYR306      0.0417
    149  CE2       14.4730   19.9390   36.8070 C.ar  306  TYR306      0.0417
    150  CZ        14.2390   18.6850   36.2530 C.ar  306  TYR306      0.1957
    151  OH        13.0500   18.4200   35.6130 O.3   306  TYR306     -0.2866
    152  N         15.4330   22.1510   34.1040 N.3   308  SER308     -0.1217
    153  CA        14.1070   21.8370   33.5940 C.3   308  SER308      0.1889
    154  C         14.2680   21.7550   32.0810 C.2   308  SER308      0.2288
    155  O         15.2080   22.3330   31.5290 O.2   308  SER308     -0.2866
    156  CB        13.1210   22.9510   33.9640 C.3   308  SER308      0.2089
    157  OG        13.6200   24.2230   33.5830 O.3   308  SER308     -0.2183
@<TRIPOS>BOND
     1    54    53    2
     2   155   154    2
     3    43    44    1
     4    53    52    1
     5     2     3    1
     6     2     5    1
     7     2     1    1
     8   154   153    1
     9     4     3    2
    10     5     6    1
    11    49    48   ar
    12    51    52    1
    13    51    45   am
    14    52    55    1
    15    44    45    1
    16    44    47    1
    17    45    46    2
    18   157   156    1
    19   153   156    1
    20   153   152    1
    21    48    47    1
    22    48    50   ar
    23     8     7   ar
    24    58    60   ar
    25    58    56   ar
    26     6     7    1
    27    62    63    1
    28    60    61   ar
    29     7     9   ar
    30    55    56    1
    31    10    11    1
    32    56    57   ar
    33    63    64    1
    34    63    66    1
    35    64    65    2
    36    61    59   ar
    37   151   150    1
    38    12    11    1
    39    12    13    2
    40    11    14    1
    41    57    59   ar
    42   150   148   ar
    43   150   149   ar
    44   148   146   ar
    45    68    66    1
    46    66    67    1
    47   142   143    2
    48   142   141    1
    49   149   147   ar
    50    15    14    1
    51    73    74    1
    52   146   145   ar
    53   137   135   ar
    54   137   138   ar
    55   141   140    1
    56   141   144    1
    57   135   133   ar
    58    69    70    1
    59    74    77    1
    60    74    75    1
    61   147   145   ar
    62   145   144    1
    63   139   138    1
    64   138   136   ar
    65    77    78    1
    66   133   132    1
    67   133   134   ar
    68   132   129    1
    69    79    80    1
    70   136   134   ar
    71    75    76    2
    72    19    18    2
    73    70    71    1
    74    24    22   ar
    75    24    26   ar
    76   130   129    1
    77   130   131    2
    78    71    72    2
    79    22    21   ar
    80    80    81    1
    81    80    83    1
    82   129   128    1
    83    18    17    1
    84    17    16    1
    85    17    20    1
    86    27    26    1
    87    26    25   ar
    88    82    81    2
    89    83    84    1
    90    21    20    1
    91    21    23   ar
    92   100    99   ar
    93   100    98   ar
    94    99    97   ar
    95    98    96   ar
    96    97    96   ar
    97    96    95    1
    98    86    84   ar
    99    86    88   ar
   100    25    23   ar
   101    95    92    1
   102    84    85   ar
   103   127   125   am
   104    88    89   ar
   105   126   125    2
   106   125   124    1
   107    85    87   ar
   108    92    91    1
   109    92    93    1
   110    28    29    1
   111    32    33    1
   112    32    30   am
   113    33    34    1
   114   105   106    1
   115   105   102    1
   116   123   122    2
   117    89    87   ar
   118    89    90    1
   119   124   121    1
   120   122   121    1
   121    93    94    2
   122    29    30    1
   123   106   107    1
   124   107   101    1
   125   102   101    1
   126   102   103    1
   127    30    31    2
   128    34    35    2
   129    41    40    1
   130   121   120    1
   131    39    38    2
   132   103   104    2
   133   103   108   am
   134    40    42    1
   135    40    37    1
   136    38    37    1
   137   117   115   ar
   138   117   118   ar
   139   119   118    1
   140   115   113   ar
   141   108   109    1
   142    37    36    1
   143   118   116   ar
   144   113   112    1
   145   113   114   ar
   146   109   112    1
   147   109   110    1
   148   116   114   ar
   149   111   110    2
