@<TRIPOS>MOLECULE
tmp/2hdkB01.pdb
 102 98 0 0 0
SMALL
GASTEIGER

@<TRIPOS>ATOM
      1  N         21.9480   -0.4330   28.5240 N.3    28  PHE28      -0.1241
      2  CA        20.8020    0.4050   28.1510 C.3    28  PHE28       0.1605
      3  C         19.4570   -0.3000   28.1660 C.2    28  PHE28       0.2264
      4  O         19.2910   -1.3360   27.5420 O.2    28  PHE28      -0.2867
      5  CB        21.0150    1.0500   26.7550 C.3    28  PHE28       0.0534
      6  CG        19.9780    2.0980   26.3980 C.ar   28  PHE28      -0.0203
      7  CD1       20.0940    3.4060   26.8940 C.ar   28  PHE28      -0.0042
      8  CD2       18.8150    1.7490   25.6940 C.ar   28  PHE28      -0.0042
      9  CE1       19.0720    4.3660   26.7260 C.ar   28  PHE28      -0.0003
     10  CE2       17.7620    2.7060   25.5060 C.ar   28  PHE28      -0.0003
     11  CZ        17.9000    4.0170   26.0350 C.ar   28  PHE28      -0.0000
     12  N          5.8370    6.3030   22.1700 N.3    73  PHE73      -0.1241
     13  CA         6.6980    6.4020   23.3230 C.3    73  PHE73       0.1605
     14  C          7.4780    7.6870   23.2960 C.2    73  PHE73       0.2264
     15  O          7.5090    8.3940   22.2760 O.2    73  PHE73      -0.2867
     16  CB         7.6440    5.1700   23.4120 C.3    73  PHE73       0.0534
     17  CG         8.6710    5.0950   22.3260 C.ar   73  PHE73      -0.0203
     18  CD1        8.3450    4.5350   21.0720 C.ar   73  PHE73      -0.0042
     19  CD2        9.9790    5.6040   22.5410 C.ar   73  PHE73      -0.0042
     20  CE1        9.3340    4.4900   20.0350 C.ar   73  PHE73      -0.0003
     21  CE2       10.9660    5.5740   21.5440 C.ar   73  PHE73      -0.0003
     22  CZ        10.6690    5.0300   20.2920 C.ar   73  PHE73      -0.0000
     23  N         16.9050    6.9360   32.6570 N.3   139  TYR139     -0.1241
     24  CA        16.1620    7.0380   31.4100 C.3   139  TYR139      0.1605
     25  C         14.6890    6.8580   31.7810 C.2   139  TYR139      0.2264
     26  O         14.3230    5.9670   32.5400 O.2   139  TYR139     -0.2867
     27  CB        16.6380    6.0040   30.3870 C.3   139  TYR139      0.0534
     28  CG        16.0050    6.1240   28.9910 C.ar  139  TYR139     -0.0201
     29  CD1       16.3750    7.1520   28.1050 C.ar  139  TYR139     -0.0009
     30  CD2       15.0170    5.2060   28.5560 C.ar  139  TYR139     -0.0009
     31  CE1       15.7870    7.2670   26.8390 C.ar  139  TYR139      0.0417
     32  CE2       14.4300    5.3260   27.3050 C.ar  139  TYR139      0.0417
     33  CZ        14.8130    6.3520   26.4540 C.ar  139  TYR139      0.1957
     34  OH        14.1960    6.4820   25.2510 O.3   139  TYR139     -0.2866
     35  N         10.8730    6.4290   30.3830 N.3   141  ARG141     -0.1245
     36  CA        10.1300    5.9540   29.2300 C.3   141  ARG141      0.1563
     37  C          8.5960    5.9900   29.3450 C.2   141  ARG141      0.2260
     38  O          7.9960    5.0470   29.8600 O.2   141  ARG141     -0.2867
     39  CB        10.6330    4.5350   28.8700 C.3   141  ARG141      0.0307
     40  CG         9.8730    3.7050   27.8380 C.3   141  ARG141      0.0489
     41  CD         9.7910    4.3440   26.4290 C.3   141  ARG141      0.2205
     42  NE        11.0830    4.6330   25.7860 N.pl3 141  ARG141     -0.0865
     43  CZ        11.7330    3.7890   24.9890 C.cat 141  ARG141      0.5346
     44  NH1       11.2360    2.5830   24.7080 N.pl3 141  ARG141      0.1354
     45  NH2       12.8610    4.1730   24.4090 N.pl3 141  ARG141      0.1354
     46  N          7.1560    9.9440   17.0970 N.3   200  LYS200     -0.1245
     47  CA         7.7900    8.8340   17.8150 C.3   200  LYS200      0.1561
     48  C          6.8170    7.6520   18.0630 C.2   200  LYS200      0.2260
     49  O          6.4110    7.3560   19.1920 O.2   200  LYS200     -0.2867
     50  CB         8.4110    9.3590   19.1050 C.3   200  LYS200      0.0271
     51  CG         9.8020    8.8710   19.3530 C.3   200  LYS200      0.0035
     52  CD        10.4490    9.5970   20.5480 C.3   200  LYS200      0.0206
     53  CE        11.9450    9.1820   20.7400 C.3   200  LYS200      0.1093
     54  NZ        12.7430    9.6000   19.5890 N.3   200  LYS200     -0.1314
     55  N          9.9660    1.8560   14.2120 N.3   205  TYR205     -0.1241
     56  CA        11.1730    1.1800   14.6670 C.3   205  TYR205      0.1605
     57  C         11.3210   -0.2920   14.3330 C.2   205  TYR205      0.2264
     58  O         12.3970   -0.6880   13.9250 O.2   205  TYR205     -0.2867
     59  CB        11.4070    1.4620   16.1540 C.3   205  TYR205      0.0534
     60  CG        11.3930    2.9410   16.3790 C.ar  205  TYR205     -0.0201
     61  CD1       10.1680    3.6210   16.5760 C.ar  205  TYR205     -0.0009
     62  CD2       12.5770    3.7140   16.2290 C.ar  205  TYR205     -0.0009
     63  CE1       10.1070    5.0040   16.5980 C.ar  205  TYR205      0.0417
     64  CE2       12.5260    5.1000   16.2580 C.ar  205  TYR205      0.0417
     65  CZ        11.2780    5.7370   16.4390 C.ar  205  TYR205      0.1957
     66  OH        11.1720    7.0820   16.4630 O.3   205  TYR205     -0.2866
     67  N         18.8480    5.9210   14.5810 N.3   238  THR238     -0.1203
     68  CA        17.6490    6.5810   15.0740 C.3   238  THR238      0.1994
     69  C         18.0660    7.8690   15.8130 C.2   238  THR238      0.2617
     70  O         17.5630    8.2140   16.8860 O.2   238  THR238     -0.2717
     71  CB        16.7990    5.6380   15.9380 C.3   238  THR238      0.1784
     72  OG1       17.6060    5.1310   17.0140 O.3   238  THR238     -0.2211
     73  CG2       16.2040    4.4860   15.0640 C.3   238  THR238      0.0376
     74  N         19.0460    8.5440   15.2160 N.am  239  MET239     -0.1979
     75  CA        19.5810    9.7950   15.7030 C.3   239  MET239      0.1605
     76  C         19.5250   10.8170   14.5840 C.2   239  MET239      0.2287
     77  O         19.6020   10.4550   13.4150 O.2   239  MET239     -0.2864
     78  CB        21.0590    9.6520   16.1120 C.3   239  MET239      0.0413
     79  CG        21.3220    8.8200   17.3480 C.3   239  MET239      0.0598
     80  SD        23.0910    8.6210   17.6200 S.3   239  MET239     -0.1393
     81  CE        23.4100    7.2260   16.5440 C.3   239  MET239      0.0692
     82  N         20.9780   12.4150   19.8960 N.3   310  GLY310     -0.1210
     83  CA        19.8020   11.7960   20.4670 C.3   310  GLY310      0.1956
     84  C         19.9830   11.7380   21.9500 C.2   310  GLY310      0.2613
     85  O         21.0960   11.9390   22.3970 O.2   310  GLY310     -0.2717
     86  N         18.9380   11.4440   22.7140 N.am  311  THR311     -0.1938
     87  CA        19.0530   11.3830   24.1690 C.3   311  THR311      0.2028
     88  C         20.0200   10.2880   24.6910 C.2   311  THR311      0.2642
     89  O         20.8240   10.5580   25.5650 O.2   311  THR311     -0.2714
     90  CB        17.6210   11.2540   24.7800 C.3   311  THR311      0.1808
     91  OG1       16.8670   12.3980   24.3970 O.3   311  THR311     -0.2208
     92  CG2       17.6060   11.1140   26.2880 C.3   311  THR311      0.0379
     93  N         19.9570    9.0820   24.1170 N.am  312  ALA312     -0.1963
     94  CA        20.7910    7.9390   24.5060 C.3   312  ALA312      0.1728
     95  C         22.2690    8.1580   24.3620 C.2   312  ALA312      0.2616
     96  O         23.0050    8.0100   25.3370 O.2   312  ALA312     -0.2715
     97  CB        20.3900    6.6840   23.7320 C.3   312  ALA312      0.0334
     98  N         22.7060    8.5700   23.1730 N.am  313  ALA313     -0.1977
     99  CA        24.1370    8.8220   22.9500 C.3   313  ALA313      0.1597
    100  C         24.6190   10.2330   23.2030 C.2   313  ALA313      0.2287
    101  O         25.7950   10.4330   23.4940 O.2   313  ALA313     -0.2864
    102  CB        24.5120    8.4350   21.5740 C.3   313  ALA313      0.0319
@<TRIPOS>BOND
     1    77    76    2
     2    58    57    2
     3    55    56    1
     4    57    56    1
     5    67    68    1
     6    76    75    1
     7    56    59    1
     8    73    71    1
     9    68    69    1
    10    68    71    1
    11    74    75    1
    12    74    69   am
    13    75    78    1
    14    69    70    2
    15    71    72    1
    16    78    79    1
    17    59    60    1
    18    62    64   ar
    19    62    60   ar
    20    64    65   ar
    21    60    61   ar
    22    65    66    1
    23    65    63   ar
    24    81    80    1
    25    61    63   ar
    26    46    47    1
    27    79    80    1
    28    47    48    1
    29    47    50    1
    30    48    49    2
    31    50    51    1
    32    51    52    1
    33    54    53    1
    34    82    83    1
    35    20    22   ar
    36    20    18   ar
    37    22    21   ar
    38    83    84    1
    39    52    53    1
    40    18    17   ar
    41    21    19   ar
    42   102    99    1
    43    84    85    2
    44    84    86   am
    45    12    13    1
    46    15    14    2
    47    17    19   ar
    48    17    16    1
    49    86    87    1
    50    99    98    1
    51    99   100    1
    52    98    95   am
    53   100   101    2
    54    14    13    1
    55    13    16    1
    56    97    94    1
    57    93    94    1
    58    93    88   am
    59    87    88    1
    60    87    90    1
    61    95    94    1
    62    95    96    2
    63    91    90    1
    64    45    43    1
    65    88    89    2
    66    44    43    1
    67    90    92    1
    68    43    42    2
    69    34    33    1
    70    10     8   ar
    71    10    11   ar
    72     8     6   ar
    73    42    41    1
    74    11     9   ar
    75     6     5    1
    76     6     7   ar
    77    41    40    1
    78    33    31   ar
    79    33    32   ar
    80     9     7   ar
    81     5     2    1
    82    31    29   ar
    83    32    30   ar
    84     4     3    2
    85    40    39    1
    86    29    28   ar
    87     2     3    1
    88     2     1    1
    89    30    28   ar
    90    39    36    1
    91    28    27    1
    92    36    37    1
    93    36    35    1
    94    37    38    2
    95    27    24    1
    96    24    25    1
    97    24    23    1
    98    25    26    2
