@<TRIPOS>MOLECULE
tmp/2hdnJ00.pdb
 80 76 0 0 0
SMALL
GASTEIGER

@<TRIPOS>ATOM
      1  N         37.0500   -1.8790    7.4880 N.3    22  ASP22      -0.1225
      2  CA        37.8040   -2.7700    6.6130 C.3    22  ASP22       0.1805
      3  C         38.7820   -1.8290    5.9250 C.2    22  ASP22       0.2598
      4  O         38.3810   -0.7780    5.4730 O.2    22  ASP22      -0.2718
      5  CB        36.8650   -3.4150    5.6030 C.3    22  ASP22       0.1424
      6  CG        37.5520   -4.4710    4.7440 C.2    22  ASP22       0.3668
      7  OD1       38.4480   -5.1200    5.2880 O.co2  22  ASP22      -0.2456
      8  OD2       37.2100   -4.6850    3.5480 O.co2  22  ASP22      -0.2456
      9  N         40.0630   -2.1460    5.8920 N.am   23  CYS23      -0.1957
     10  CA        40.9980   -1.2550    5.2270 C.3    23  CYS23       0.1828
     11  C         41.6480   -2.0250    4.0800 C.2    23  CYS23       0.2467
     12  O         41.7870   -3.2550    4.1090 O.2    23  CYS23      -0.2730
     13  CB        42.0250   -0.7200    6.2050 C.3    23  CYS23       0.0996
     14  SG        41.3010   -0.0500    7.7060 S.3    23  CYS23      -0.0797
     15  N         42.0370   -1.3110    3.0260 N.am   24  PRO24      -0.2726
     16  CA        42.6430   -2.0290    1.9120 C.3    24  PRO24       0.1402
     17  C         44.0260   -2.6300    2.1160 C.2    24  PRO24       0.2269
     18  O         44.2320   -3.8100    1.8240 O.2    24  PRO24      -0.2865
     19  CB        42.5780   -0.9960    0.7940 C.3    24  PRO24       0.0296
     20  CG        42.6880    0.3100    1.5070 C.3    24  PRO24       0.0237
     21  CD        41.8460    0.1240    2.7150 C.3    24  PRO24       0.0939
     22  N         40.7230  -12.6870    9.8150 N.3    46  VAL46      -0.1245
     23  CA        40.4500  -13.5230    8.6490 C.3    46  VAL46       0.1561
     24  C         41.7540  -14.1850    8.2410 C.2    46  VAL46       0.2260
     25  O         42.7650  -13.4990    8.0510 O.2    46  VAL46      -0.2867
     26  CB        39.9360  -12.6760    7.4780 C.3    46  VAL46       0.0252
     27  CG1       39.7660  -13.5210    6.2480 C.3    46  VAL46       0.0019
     28  CG2       38.6500  -12.0510    7.8470 C.3    46  VAL46       0.0019
     29  N         38.8950  -18.6670    6.1480 N.3    77  ASN77      -0.1225
     30  CA        38.2670  -18.4240    4.8680 C.3    77  ASN77       0.1785
     31  C         38.7410  -19.2890    3.7260 C.2    77  ASN77       0.2597
     32  O         39.7200  -20.0100    3.8510 O.2    77  ASN77      -0.2718
     33  CB        38.4190  -16.9560    4.5150 C.3    77  ASN77       0.1169
     34  CG        37.5340  -16.5550    3.3940 C.2    77  ASN77       0.2627
     35  OD1       36.4290  -17.0500    3.2740 O.2    77  ASN77      -0.2716
     36  ND2       38.0030  -15.6330    2.5670 N.am   77  ASN77      -0.0877
     37  N         38.0270  -19.2300    2.6160 N.am   78  LYS78      -0.1980
     38  CA        38.4180  -20.0350    1.4750 C.3    78  LYS78       0.1596
     39  C         38.3920  -21.5550    1.7310 C.2    78  LYS78       0.2287
     40  O         39.1590  -22.2940    1.1250 O.2    78  LYS78      -0.2864
     41  CB        39.8100  -19.5920    1.0210 C.3    78  LYS78       0.0298
     42  CG        39.7560  -18.2070    0.4480 C.3    78  LYS78       0.0038
     43  CD        41.1010  -17.5940    0.1180 C.3    78  LYS78       0.0206
     44  CE        40.8580  -16.3170   -0.6900 C.3    78  LYS78       0.1093
     45  NZ        42.0770  -15.5650   -0.9880 N.3    78  LYS78      -0.1314
     46  N         36.1960  -23.3660    0.8210 N.3    80  ASP80      -0.1225
     47  CA        35.5730  -23.9570   -0.3280 C.3    80  ASP80       0.1805
     48  C         36.6760  -24.4520   -1.2530 C.2    80  ASP80       0.2597
     49  O         36.3990  -24.8990   -2.3540 O.2    80  ASP80      -0.2718
     50  CB        34.7340  -22.9090   -1.0390 C.3    80  ASP80       0.1424
     51  CG        35.5680  -21.7310   -1.5160 C.2    80  ASP80       0.3668
     52  OD1       36.2770  -21.1620   -0.6670 O.co2  80  ASP80      -0.2456
     53  OD2       35.5230  -21.3750   -2.7220 O.co2  80  ASP80      -0.2456
     54  N         37.9290  -24.3560   -0.8150 N.am   81  MET81      -0.1979
     55  CA        39.0780  -24.7820   -1.6180 C.3    81  MET81       0.1605
     56  C         39.6690  -26.0180   -1.0230 C.2    81  MET81       0.2287
     57  O         40.1170  -26.8880   -1.7350 O.2    81  MET81      -0.2864
     58  CB        40.2120  -23.7610   -1.6230 C.3    81  MET81       0.0413
     59  CG        39.8590  -22.4000   -2.1160 C.3    81  MET81       0.0598
     60  SD        39.6090  -22.4620   -3.8470 S.3    81  MET81      -0.1393
     61  CE        41.1910  -21.7790   -4.3780 C.3    81  MET81       0.0692
     62  N         33.3460  -19.7580    3.7920 N.3   115  SER115     -0.1202
     63  CA        33.7490  -19.2890    2.5160 C.3   115  SER115      0.2020
     64  C         32.9790  -18.0080    2.2530 C.2   115  SER115      0.2619
     65  O         31.7730  -18.0100    2.0070 O.2   115  SER115     -0.2717
     66  CB        33.4590  -20.3370    1.4520 C.3   115  SER115      0.2103
     67  OG        33.3360  -19.7340    0.1600 O.3   115  SER115     -0.2182
     68  N         33.7030  -16.9040    2.3220 N.am  116  ALA116     -0.1965
     69  CA        33.1190  -15.6140    2.1220 C.3   116  ALA116      0.1728
     70  C         32.5880  -15.5040    0.7030 C.2   116  ALA116      0.2616
     71  O         31.5730  -14.8590    0.4520 O.2   116  ALA116     -0.2715
     72  CB        34.1720  -14.5480    2.3910 C.3   116  ALA116      0.0334
     73  N         33.2730  -16.1640   -0.2170 N.am  117  LEU117     -0.1977
     74  CA        32.9070  -16.0680   -1.6050 C.3   117  LEU117      0.1596
     75  C         31.6060  -16.7790   -1.8850 C.2   117  LEU117      0.2287
     76  O         30.6510  -16.1410   -2.3520 O.2   117  LEU117     -0.2864
     77  CB        34.0240  -16.6430   -2.4520 C.3   117  LEU117      0.0297
     78  CG        33.9260  -16.5170   -3.9680 C.3   117  LEU117      0.0022
     79  CD1       33.4630  -15.1090   -4.3980 C.3   117  LEU117      0.0001
     80  CD2       35.2990  -16.8920   -4.5150 C.3   117  LEU117      0.0001
@<TRIPOS>BOND
     1    80    78    1
     2    79    78    1
     3    61    60    1
     4    78    77    1
     5    60    59    1
     6    53    51   ar
     7    77    74    1
     8    49    48    2
     9    76    75    2
    10    59    58    1
    11    75    74    1
    12    57    56    2
    13    58    55    1
    14    55    56    1
    15    55    54    1
    16    74    73    1
    17    51    50    1
    18    51    52   ar
    19    48    54   am
    20    48    47    1
    21    50    47    1
    22    45    44    1
    23    44    43    1
    24    47    46    1
    25    73    70   am
    26    43    42    1
    27    67    66    1
    28    42    41    1
    29    71    70    2
    30    70    69    1
    31    19    20    1
    32    19    16    1
    33    41    38    1
    34    40    39    2
    35    66    63    1
    36    38    39    1
    37    38    37    1
    38    20    21    1
    39    18    17    2
    40    16    17    1
    41    16    15    1
    42    65    64    2
    43    69    68    1
    44    69    72    1
    45    64    68   am
    46    64    63    1
    47    63    62    1
    48    36    34   am
    49    37    31   am
    50    21    15    1
    51    15    11   am
    52    35    34    2
    53    34    33    1
    54     8     6   ar
    55    31    32    2
    56    31    30    1
    57    11    12    2
    58    11    10    1
    59    33    30    1
    60     6     7   ar
    61     6     5    1
    62    30    29    1
    63    10     9    1
    64    10    13    1
    65     4     3    2
    66     5     2    1
    67     9     3   am
    68     3     2    1
    69    13    14    1
    70    27    26    1
    71     2     1    1
    72    26    28    1
    73    26    23    1
    74    25    24    2
    75    24    23    1
    76    23    22    1
