@<TRIPOS>MOLECULE
tmp/2hdqA03.pdb
 79 75 0 0 0
SMALL
GASTEIGER

@<TRIPOS>ATOM
      1  N         28.5110   12.3470   10.1160 N.3   117  GLN117     -0.1245
      2  CA        28.1210   11.4190    9.0710 C.3   117  GLN117      0.1566
      3  C         28.8120   11.7780    7.7840 C.2   117  GLN117      0.2260
      4  O         29.0110   12.9520    7.4960 O.2   117  GLN117     -0.2867
      5  CB        26.5970   11.4350    8.8340 C.3   117  GLN117      0.0367
      6  CG        25.7230   11.1270   10.0560 C.3   117  GLN117      0.0905
      7  CD        25.0600   12.3620   10.6920 C.2   117  GLN117      0.2608
      8  OE1       25.4170   13.5050   10.3980 O.2   117  GLN117     -0.2717
      9  NE2       24.0880   12.1190   11.5820 N.am  117  GLN117     -0.0878
     10  N         31.5610    9.2590   12.5690 N.3   149  ASN149     -0.1240
     11  CA        31.6230    8.1080   11.7160 C.3   149  ASN149      0.1653
     12  C         32.5550    8.3460   10.5250 C.2   149  ASN149      0.2266
     13  O         33.1920    7.3980   10.0550 O.2   149  ASN149     -0.2867
     14  CB        30.2300    7.7360   11.1920 C.3   149  ASN149      0.1155
     15  CG        29.2890    7.2650   12.2900 C.2   149  ASN149      0.2627
     16  OD1       29.7020    6.6350   13.2480 O.2   149  ASN149     -0.2716
     17  ND2       28.0110    7.5860   12.1500 N.am  149  ASN149     -0.0877
     18  N         11.4450    1.6530   14.6470 N.3   201  ARG201     -0.1245
     19  CA        11.5590    3.0930   14.8360 C.3   201  ARG201      0.1563
     20  C         10.1750    3.6870   14.5920 C.2   201  ARG201      0.2260
     21  O          9.6070    3.5440   13.5080 O.2   201  ARG201     -0.2867
     22  CB        12.5820    3.7050   13.8670 C.3   201  ARG201      0.0307
     23  CG        12.9130    5.1820   14.1760 C.3   201  ARG201      0.0489
     24  CD        13.7900    5.8090   13.1020 C.3   201  ARG201      0.2205
     25  NE        14.1980    7.1700   13.4650 N.pl3 201  ARG201     -0.0865
     26  CZ        15.3350    7.7780   13.0880 C.cat 201  ARG201      0.5346
     27  NH1       16.2390    7.1750   12.3080 N.pl3 201  ARG201      0.1354
     28  NH2       15.5760    9.0200   13.5050 N.pl3 201  ARG201      0.1354
     29  N         15.5600   -1.5270    8.7400 N.3   207  HIS207     -0.1226
     30  CA        16.9580   -1.9860    8.7610 C.3   207  HIS207      0.1752
     31  C         17.8600   -0.8420    8.3610 C.2   207  HIS207      0.2596
     32  O         17.4120    0.0920    7.7230 O.2   207  HIS207     -0.2718
     33  CB        17.1770   -3.1910    7.8360 C.3   207  HIS207      0.0759
     34  CG        16.7540   -4.4980    8.4340 C.ar  207  HIS207      0.0818
     35  ND1       16.3890   -5.5820    7.6660 N.ar  207  HIS207     -0.2268
     36  CD2       16.6230   -4.8930    9.7250 C.ar  207  HIS207      0.1154
     37  CE1       16.0620   -6.5900    8.4550 C.ar  207  HIS207      0.1986
     38  NE2       16.1950   -6.1990    9.7090 N.ar  207  HIS207     -0.2212
     39  N         19.1260   -0.9170    8.7610 N.am  208  VAL208     -0.1966
     40  CA        20.0980    0.1400    8.4750 C.3   208  VAL208      0.1727
     41  C         20.2650    0.2950    6.9590 C.2   208  VAL208      0.2616
     42  O         20.2920   -0.6880    6.2330 O.2   208  VAL208     -0.2715
     43  CB        21.4790   -0.1510    9.1220 C.3   208  VAL208      0.0290
     44  CG1       22.0800   -1.5090    8.5970 C.3   208  VAL208      0.0023
     45  CG2       22.4240    1.0090    8.8590 C.3   208  VAL208      0.0023
     46  N         20.3280    1.5400    6.5000 N.am  209  SER209     -0.1950
     47  CA        20.4820    1.8470    5.0850 C.3   209  SER209      0.1924
     48  C         21.9520    1.8250    4.6890 C.2   209  SER209      0.2314
     49  O         22.8120    2.2220    5.4940 O.2   209  SER209     -0.2863
     50  CB        19.9480    3.2570    4.8040 C.3   209  SER209      0.2116
     51  OG        18.5430    3.3420    4.9960 O.3   209  SER209     -0.2180
     52  N         29.4100    1.6590   11.3290 N.3   218  TYR218     -0.1241
     53  CA        28.1610    1.2300   11.9740 C.3   218  TYR218      0.1605
     54  C         27.4620    0.0080   11.3530 C.2   218  TYR218      0.2264
     55  O         26.2930   -0.2510   11.6470 O.2   218  TYR218     -0.2867
     56  CB        27.1850    2.4110   12.0120 C.3   218  TYR218      0.0534
     57  CG        26.8890    3.0060   10.6440 C.ar  218  TYR218     -0.0201
     58  CD1       25.8420    2.5210    9.8620 C.ar  218  TYR218     -0.0009
     59  CD2       27.6700    4.0490   10.1310 C.ar  218  TYR218     -0.0009
     60  CE1       25.5760    3.0560    8.5890 C.ar  218  TYR218      0.0417
     61  CE2       27.4060    4.6100    8.8850 C.ar  218  TYR218      0.0417
     62  CZ        26.3530    4.1050    8.1100 C.ar  218  TYR218      0.1957
     63  OH        26.0780    4.6420    6.8640 O.3   218  TYR218     -0.2866
     64  N         23.9710    2.7500   18.1450 N.3   315  ALA315     -0.1231
     65  CA        22.6120    2.7990   17.6720 C.3   315  ALA315      0.1694
     66  C         22.5880    2.7760   16.1490 C.2   315  ALA315      0.2593
     67  O         23.5380    3.2180   15.4910 O.2   315  ALA315     -0.2718
     68  CB        21.9250    4.0460   18.1830 C.3   315  ALA315      0.0304
     69  N         21.4850    2.2500   15.6090 N.am  316  THR316     -0.1939
     70  CA        21.0490    2.5620   14.2540 C.3   316  THR316      0.2028
     71  C         19.6310    3.1090   14.4500 C.2   316  THR316      0.2642
     72  O         19.1580    3.1950   15.5890 O.2   316  THR316     -0.2714
     73  CB        21.0990    1.3210   13.3130 C.3   316  THR316      0.1808
     74  OG1       20.2250    0.2820   13.7990 O.3   316  THR316     -0.2208
     75  CG2       22.5370    0.7730   13.2020 C.3   316  THR316      0.0379
     76  N         18.9480    3.4840   13.3770 N.am  317  GLY317     -0.1954
     77  CA        17.5480    3.9380   13.4770 C.3   317  GLY317      0.1869
     78  C         16.6340    2.9760   14.2300 C.2   317  GLY317      0.2309
     79  O         15.7340    3.3980   14.9630 O.2   317  GLY317     -0.2863
@<TRIPOS>BOND
     1    48    47    1
     2    48    49    2
     3    50    51    1
     4    50    47    1
     5    47    46    1
     6    42    41    2
     7    46    41   am
     8    63    62    1
     9    41    40    1
    10     4     3    2
    11    35    34   ar
    12    35    37   ar
    13    32    31    2
    14     3     2    1
    15    33    34    1
    16    33    30    1
    17    62    60   ar
    18    62    61   ar
    19    31    30    1
    20    31    39   am
    21    34    36   ar
    22    37    38   ar
    23    40    39    1
    24    40    43    1
    25    60    58   ar
    26    44    43    1
    27    29    30    1
    28     5     2    1
    29     5     6    1
    30    45    43    1
    31    61    59   ar
    32     2     1    1
    33    38    36   ar
    34    58    57   ar
    35    13    12    2
    36     6     7    1
    37    59    57   ar
    38     8     7    2
    39    12    11    1
    40    57    56    1
    41     7     9   am
    42    14    11    1
    43    14    15    1
    44    52    53    1
    45    54    55    2
    46    54    53    1
    47    11    10    1
    48    53    56    1
    49    17    15   am
    50    15    16    2
    51    27    26    1
    52    26    25    2
    53    26    28    1
    54    24    25    1
    55    24    23    1
    56    75    73    1
    57    73    74    1
    58    73    70    1
    59    76    77    1
    60    76    71   am
    61    77    78    1
    62    21    20    2
    63    22    23    1
    64    22    19    1
    65    78    79    2
    66    70    71    1
    67    70    69    1
    68    71    72    2
    69    20    19    1
    70    18    19    1
    71    67    66    2
    72    69    66   am
    73    66    65    1
    74    65    64    1
    75    65    68    1
