@<TRIPOS>MOLECULE
tmp/2hdqA00.pdb
 91 84 0 0 0
SMALL
GASTEIGER

@<TRIPOS>ATOM
      1  N         29.8710   14.2090   11.7420 N.3   116  LEU116     -0.1245
      2  CA        29.3210   12.9720   12.3230 C.3   116  LEU116      0.1561
      3  C         29.0080   11.9110   11.2680 C.2   116  LEU116      0.2260
      4  O         29.2090   10.7100   11.5070 O.2   116  LEU116     -0.2867
      5  CB        28.0880   13.2710   13.1970 C.3   116  LEU116      0.0270
      6  CG        27.3370   12.0670   13.7560 C.3   116  LEU116      0.0019
      7  CD1       28.2280   11.2340   14.6640 C.3   116  LEU116      0.0001
      8  CD2       26.0640   12.5220   14.4950 C.3   116  LEU116      0.0001
      9  N         38.2940   16.2690   20.7700 N.3   145  ARG145     -0.1245
     10  CA        37.5670   15.0760   20.3450 C.3   145  ARG145      0.1563
     11  C         36.1530   15.4610   19.9110 C.2   145  ARG145      0.2260
     12  O         35.4020   16.0880   20.6570 O.2   145  ARG145     -0.2867
     13  CB        37.4990   14.0650   21.4900 C.3   145  ARG145      0.0307
     14  CG        36.7280   12.7660   21.1890 C.3   145  ARG145      0.0489
     15  CD        36.6010   11.9690   22.4900 C.3   145  ARG145      0.2205
     16  NE        35.9880   10.6560   22.3020 N.pl3 145  ARG145     -0.0865
     17  CZ        34.6810   10.4540   22.1820 C.cat 145  ARG145      0.5346
     18  NH1       33.8390   11.4820   22.2050 N.pl3 145  ARG145      0.1354
     19  NH2       34.2110    9.2210   22.0250 N.pl3 145  ARG145      0.1354
     20  N         33.1640   13.0940   18.1710 N.3   147  TYR147     -0.1241
     21  CA        32.7100   11.8190   17.6640 C.3   147  TYR147      0.1605
     22  C         32.2230   11.9090   16.2150 C.2   147  TYR147      0.2264
     23  O         31.4300   12.7930   15.8770 O.2   147  TYR147     -0.2867
     24  CB        31.5880   11.3440   18.5440 C.3   147  TYR147      0.0534
     25  CG        31.1590    9.9300   18.2810 C.ar  147  TYR147     -0.0201
     26  CD1       29.9130    9.6400   17.7130 C.ar  147  TYR147     -0.0009
     27  CD2       31.9670    8.8880   18.6530 C.ar  147  TYR147     -0.0009
     28  CE1       29.5150    8.3200   17.5180 C.ar  147  TYR147      0.0417
     29  CE2       31.5830    7.5930   18.4750 C.ar  147  TYR147      0.0417
     30  CZ        30.3690    7.3080   17.9060 C.ar  147  TYR147      0.1957
     31  OH        30.0480    5.9870   17.7510 O.3   147  TYR147     -0.2866
     32  N         36.3480    2.6910   24.4640 N.3   269  GLU269     -0.1245
     33  CA        36.5530    3.8340   25.3550 C.3   269  GLU269      0.1567
     34  C         36.6700    3.2540   26.7520 C.2   269  GLU269      0.2260
     35  O         36.1360    2.1730   27.0200 O.2   269  GLU269     -0.2867
     36  CB        35.4030    4.8280   25.2720 C.3   269  GLU269      0.0388
     37  CG        35.3200    5.5330   23.9250 C.3   269  GLU269      0.1160
     38  CD        33.9390    6.1340   23.6310 C.2   269  GLU269      0.3649
     39  OE1       33.1990    6.4300   24.6010 O.co2 269  GLU269     -0.2457
     40  OE2       33.6190    6.3020   22.4330 O.co2 269  GLU269     -0.2457
     41  N         29.8400   12.6590   29.5390 N.3   285  ASP285     -0.1239
     42  CA        30.1320   11.5450   28.6480 C.3   285  ASP285      0.1674
     43  C         28.9510   10.5480   28.5370 C.2   285  ASP285      0.2266
     44  O         29.1530    9.3620   28.2540 O.2   285  ASP285     -0.2867
     45  CB        31.4320   10.8840   29.1370 C.3   285  ASP285      0.1410
     46  CG        32.0210    9.9090   28.1340 C.2   285  ASP285      0.3668
     47  OD1       31.9710   10.1870   26.9080 O.co2 285  ASP285     -0.2456
     48  OD2       32.5430    8.8620   28.5970 O.co2 285  ASP285     -0.2456
     49  N         26.6060   10.7780   26.2650 N.3   287  LYS287     -0.1245
     50  CA        26.3450   10.6130   24.8260 C.3   287  LYS287      0.1561
     51  C         24.9890   11.1760   24.3510 C.2   287  LYS287      0.2260
     52  O         24.5730   10.9010   23.2390 O.2   287  LYS287     -0.2867
     53  CB        26.4630    9.1410   24.4020 C.3   287  LYS287      0.0271
     54  CG        27.6450    8.3570   25.0080 C.3   287  LYS287      0.0035
     55  CD        28.9630    8.9200   24.6000 C.3   287  LYS287      0.0206
     56  CE        30.1330    8.1180   25.1530 C.3   287  LYS287      0.1093
     57  NZ        31.4240    8.6810   24.6440 N.3   287  LYS287     -0.1314
     58  N         24.3390   14.4900   23.9440 N.3   289  ALA289     -0.1231
     59  CA        24.7290   15.5560   23.0470 C.3   289  ALA289      0.1694
     60  C         25.9260   15.1280   22.2070 C.2   289  ALA289      0.2592
     61  O         26.7170   14.2850   22.6300 O.2   289  ALA289     -0.2718
     62  CB        25.0680   16.7840   23.8600 C.3   289  ALA289      0.0304
     63  N         26.0540   15.6870   21.0100 N.am  290  LEU290     -0.1966
     64  CA        27.3230   15.6280   20.3040 C.3   290  LEU290      0.1728
     65  C         28.2440   16.7110   20.9020 C.2   290  LEU290      0.2616
     66  O         27.9740   17.9130   20.8050 O.2   290  LEU290     -0.2715
     67  CB        27.1530   15.8010   18.7940 C.3   290  LEU290      0.0311
     68  CG        28.3710   15.4160   17.9450 C.3   290  LEU290      0.0022
     69  CD1       28.7670   13.9310   18.1350 C.3   290  LEU290      0.0001
     70  CD2       28.1050   15.7100   16.4780 C.3   290  LEU290      0.0001
     71  N         29.3330   16.2680   21.5210 N.am  291  ALA291     -0.1977
     72  CA        30.1240   17.1370   22.3720 C.3   291  ALA291      0.1597
     73  C         31.5470   17.3160   21.8590 C.2   291  ALA291      0.2287
     74  O         32.2880   16.3450   21.7520 O.2   291  ALA291     -0.2864
     75  CB        30.1310   16.5830   23.8050 C.3   291  ALA291      0.0319
     76  N         31.4480    0.4460   24.9100 N.3   312  LYS312     -0.1231
     77  CA        31.0500    1.1700   23.7000 C.3   312  LYS312      0.1693
     78  C         29.5450    1.0420   23.5320 C.2   312  LYS312      0.2592
     79  O         28.9620   -0.0410   23.6820 O.2   312  LYS312     -0.2718
     80  CB        31.7540    0.6280   22.4500 C.3   312  LYS312      0.0285
     81  CG        31.4780    1.3940   21.1700 C.3   312  LYS312      0.0035
     82  CD        32.0830    2.7860   21.2230 C.3   312  LYS312      0.0206
     83  CE        31.7530    3.6410   19.9960 C.3   312  LYS312      0.1093
     84  NZ        30.4480    4.3890   20.0860 N.3   312  LYS312     -0.1314
     85  N         28.9210    2.1630   23.2150 N.am  313  THR313     -0.1953
     86  CA        27.5130    2.1790   22.9260 C.3   313  THR313      0.1897
     87  C         27.2870    2.3310   21.4190 C.2   313  THR313      0.2313
     88  O         28.1270    2.9140   20.7090 O.2   313  THR313     -0.2863
     89  CB        26.8180    3.3240   23.6900 C.3   313  THR313      0.1794
     90  OG1       25.4080    3.1310   23.6060 O.3   313  THR313     -0.2208
     91  CG2       27.1910    4.7180   23.1060 C.3   313  THR313      0.0378
@<TRIPOS>BOND
     1     3     4    2
     2     3     2    1
     3     1     2    1
     4     2     5    1
     5     5     6    1
     6     6     8    1
     7     6     7    1
     8    23    22    2
     9    22    21    1
    10    70    68    1
    11    28    26   ar
    12    28    30   ar
    13    21    20    1
    14    21    24    1
    15    26    25   ar
    16    31    30    1
    17    30    29   ar
    18    68    69    1
    19    68    67    1
    20    25    24    1
    21    25    27   ar
    22    29    27   ar
    23    67    64    1
    24    11    10    1
    25    11    12    2
    26    83    84    1
    27    83    82    1
    28    64    65    1
    29    64    63    1
    30    10     9    1
    31    10    13    1
    32    88    87    2
    33    66    65    2
    34    65    71   am
    35    63    60   am
    36    81    82    1
    37    81    80    1
    38    14    13    1
    39    14    15    1
    40    87    86    1
    41    71    72    1
    42    74    73    2
    43    73    72    1
    44    19    17    1
    45    17    18    1
    46    17    16    2
    47    60    61    2
    48    60    59    1
    49    16    15    1
    50    72    75    1
    51    40    38   ar
    52    80    77    1
    53    86    85    1
    54    86    89    1
    55    59    62    1
    56    59    58    1
    57    91    89    1
    58    85    78   am
    59    52    51    2
    60    78    79    2
    61    78    77    1
    62    90    89    1
    63    38    37    1
    64    38    39   ar
    65    77    76    1
    66    37    36    1
    67    51    50    1
    68    53    50    1
    69    53    54    1
    70    32    33    1
    71    55    54    1
    72    55    56    1
    73    57    56    1
    74    50    49    1
    75    36    33    1
    76    33    34    1
    77    34    35    2
    78    47    46   ar
    79    46    48   ar
    80    46    45    1
    81    44    43    2
    82    43    42    1
    83    42    45    1
    84    42    41    1
