@<TRIPOS>MOLECULE
tmp/2hdqA01.pdb
 88 85 0 0 0
SMALL
GASTEIGER

@<TRIPOS>ATOM
      1  N         38.2830   -9.7350   24.0970 N.3   234  ASN234     -0.1225
      2  CA        38.7850   -8.4740   24.6350 C.3   234  ASN234      0.1785
      3  C         39.0670   -8.4450   26.1500 C.2   234  ASN234      0.2597
      4  O         39.8920   -7.6590   26.5990 O.2   234  ASN234     -0.2718
      5  CB        37.8300   -7.3330   24.2690 C.3   234  ASN234      0.1169
      6  CG        37.9420   -6.9380   22.8080 C.2   234  ASN234      0.2627
      7  OD1       38.6670   -6.0020   22.4820 O.2   234  ASN234     -0.2716
      8  ND2       37.2620   -7.6750   21.9130 N.am  234  ASN234     -0.0877
      9  N         38.3700   -9.2780   26.9190 N.am  235  LEU235     -0.1966
     10  CA        38.6530   -9.4960   28.3610 C.3   235  LEU235      0.1728
     11  C         39.9820  -10.2210   28.6190 C.2   235  LEU235      0.2616
     12  O         40.7000   -9.8820   29.5560 O.2   235  LEU235     -0.2715
     13  CB        37.5500  -10.3460   29.0170 C.3   235  LEU235      0.0311
     14  CG        36.3380   -9.6550   29.6200 C.3   235  LEU235      0.0022
     15  CD1       35.2730  -10.6650   29.9730 C.3   235  LEU235      0.0001
     16  CD2       36.7680   -8.8650   30.8380 C.3   235  LEU235      0.0001
     17  N         40.2620  -11.2450   27.8140 N.am  236  LYS236     -0.1964
     18  CA        41.4850  -12.0650   27.9150 C.3   236  LYS236      0.1713
     19  C         42.1970  -12.1910   26.5630 C.2   236  LYS236      0.2458
     20  O         42.2160  -13.2760   25.9610 O.2   236  LYS236     -0.2730
     21  CB        41.1220  -13.4640   28.4070 C.3   236  LYS236      0.0311
     22  CG        41.4930  -13.7690   29.8240 C.3   236  LYS236      0.0038
     23  CD        40.9400  -15.1500   30.2010 C.3   236  LYS236      0.0206
     24  CE        41.9670  -16.0410   30.9050 C.3   236  LYS236      0.1093
     25  NZ        41.5320  -17.4710   30.7990 N.3   236  LYS236     -0.1314
     26  N         42.7810  -11.0920   26.0700 N.am  237  PRO237     -0.2716
     27  CA        43.4510  -11.1350   24.7630 C.3   237  PRO237      0.1536
     28  C         44.6500  -12.0980   24.7220 C.2   237  PRO237      0.2598
     29  O         44.9800  -12.6160   23.6570 O.2   237  PRO237     -0.2715
     30  CB        43.9180   -9.6930   24.5570 C.3   237  PRO237      0.0310
     31  CG        43.9930   -9.1070   25.9190 C.3   237  PRO237      0.0237
     32  CD        42.8850   -9.7670   26.6980 C.3   237  PRO237      0.0939
     33  N         45.2740  -12.3530   25.8740 N.am  238  LEU238     -0.1978
     34  CA        46.4510  -13.2320   25.9350 C.3   238  LEU238      0.1596
     35  C         46.0960  -14.7150   25.7540 C.2   238  LEU238      0.2287
     36  O         46.9810  -15.5380   25.5030 O.2   238  LEU238     -0.2864
     37  CB        47.2580  -12.9930   27.2230 C.3   238  LEU238      0.0297
     38  CG        47.6760  -11.5380   27.4970 C.3   238  LEU238      0.0022
     39  CD1       48.4220  -11.4370   28.8160 C.3   238  LEU238      0.0001
     40  CD2       48.5160  -10.9350   26.3420 C.3   238  LEU238      0.0001
     41  N         45.1080   -5.4260   22.3250 N.3   250  GLN250     -0.1245
     42  CA        45.7870   -4.5950   23.3220 C.3   250  GLN250      0.1566
     43  C         46.0070   -3.1590   22.8490 C.2   250  GLN250      0.2260
     44  O         45.8540   -2.2200   23.6330 O.2   250  GLN250     -0.2867
     45  CB        47.1290   -5.2070   23.7190 C.3   250  GLN250      0.0367
     46  CG        47.0140   -6.5700   24.3870 C.3   250  GLN250      0.0905
     47  CD        48.3490   -7.2730   24.5150 C.2   250  GLN250      0.2608
     48  OE1       49.1380   -7.3460   23.5590 O.2   250  GLN250     -0.2717
     49  NE2       48.6180   -7.7890   25.7030 N.am  250  GLN250     -0.0878
     50  N         42.6770   -1.1040   23.1850 N.3   253  GLN253     -0.1245
     51  CA        42.3490   -0.7100   24.5710 C.3   253  GLN253      0.1566
     52  C         43.4310    0.1460   25.2260 C.2   253  GLN253      0.2260
     53  O         43.3650    0.4110   26.4380 O.2   253  GLN253     -0.2867
     54  CB        42.1160   -1.9470   25.4550 C.3   253  GLN253      0.0367
     55  CG        40.8660   -2.7140   25.1450 C.3   253  GLN253      0.0905
     56  CD        40.7070   -3.9230   26.0390 C.2   253  GLN253      0.2608
     57  OE1       40.8940   -3.8370   27.2640 O.2   253  GLN253     -0.2717
     58  NE2       40.3710   -5.0690   25.4330 N.am  253  GLN253     -0.0878
     59  N         46.9630   -1.0940   27.4460 N.3   304  ALA304     -0.1231
     60  CA        45.7000   -1.5750   28.0040 C.3   304  ALA304      0.1694
     61  C         45.8220   -1.8680   29.5050 C.2   304  ALA304      0.2592
     62  O         46.6630   -2.6720   29.9250 O.2   304  ALA304     -0.2718
     63  CB        45.2570   -2.7960   27.2660 C.3   304  ALA304      0.0304
     64  N         44.9980   -1.1950   30.2980 N.am  305  VAL305     -0.1966
     65  CA        44.9720   -1.3290   31.7580 C.3   305  VAL305      0.1727
     66  C         43.8870   -2.3190   32.2040 C.2   305  VAL305      0.2616
     67  O         42.7110   -2.1200   31.9370 O.2   305  VAL305     -0.2715
     68  CB        44.6860    0.0600   32.3960 C.3   305  VAL305      0.0290
     69  CG1       44.5000   -0.0310   33.9140 C.3   305  VAL305      0.0023
     70  CG2       45.7980    1.0600   32.0240 C.3   305  VAL305      0.0023
     71  N         44.2680   -3.3820   32.9000 N.am  306  ARG306     -0.1977
     72  CA        43.2900   -4.3570   33.3820 C.3   306  ARG306      0.1597
     73  C         42.1830   -3.7180   34.2370 C.2   306  ARG306      0.2287
     74  O         41.0080   -4.0240   34.0530 O.2   306  ARG306     -0.2864
     75  CB        43.9740   -5.4890   34.1590 C.3   306  ARG306      0.0334
     76  CG        44.3770   -6.6590   33.2820 C.3   306  ARG306      0.0492
     77  CD        45.1870   -7.7020   34.0790 C.3   306  ARG306      0.2205
     78  NE        44.3550   -8.5270   34.9530 N.pl3 306  ARG306     -0.0865
     79  CZ        43.6980   -9.6240   34.5700 C.cat 306  ARG306      0.5346
     80  NH1       43.7410  -10.0410   33.3030 N.pl3 306  ARG306      0.1354
     81  NH2       42.9790  -10.3100   35.4570 N.pl3 306  ARG306      0.1354
     82  N         38.2310   -6.1660   32.5930 N.3   327  PRO327     -0.2116
     83  CA        39.2050   -7.2830   32.5500 C.3   327  PRO327      0.1372
     84  C         39.7010   -7.7560   33.9260 C.2   327  PRO327      0.2244
     85  O         39.9080   -8.9640   34.1320 O.2   327  PRO327     -0.2868
     86  CB        40.3590   -6.7080   31.7210 C.3   327  PRO327      0.0268
     87  CG        39.7310   -5.6360   30.8760 C.3   327  PRO327      0.0207
     88  CD        38.6280   -5.0540   31.7120 C.3   327  PRO327      0.0892
@<TRIPOS>BOND
     1     8     6   am
     2    41    42    1
     3     7     6    2
     4     6     5    1
     5    43    42    1
     6    43    44    2
     7    50    51    1
     8    42    45    1
     9    48    47    2
    10    29    28    2
    11    45    46    1
    12     1     2    1
    13     5     2    1
    14    46    47    1
    15    47    49   am
    16    30    27    1
    17    30    31    1
    18    51    52    1
    19    51    54    1
    20     2     3    1
    21    28    27    1
    22    28    33   am
    23    27    26    1
    24    55    54    1
    25    55    56    1
    26    52    53    2
    27    58    56   am
    28    36    35    2
    29    35    34    1
    30    33    34    1
    31    31    32    1
    32    34    37    1
    33    20    19    2
    34    56    57    2
    35    26    19   am
    36    26    32    1
    37     3     4    2
    38     3     9   am
    39    40    38    1
    40    19    18    1
    41     9    10    1
    42    37    38    1
    43    63    60    1
    44    59    60    1
    45    38    39    1
    46    17    18    1
    47    17    11   am
    48    18    21    1
    49    60    61    1
    50    10    11    1
    51    10    13    1
    52    21    22    1
    53    11    12    2
    54    13    14    1
    55    61    62    2
    56    61    64   am
    57    14    15    1
    58    14    16    1
    59    22    23    1
    60    23    24    1
    61    64    65    1
    62    25    24    1
    63    87    88    1
    64    87    86    1
    65    88    82    1
    66    86    83    1
    67    65    66    1
    68    65    68    1
    69    67    66    2
    70    70    68    1
    71    66    71   am
    72    68    69    1
    73    83    82    1
    74    83    84    1
    75    71    72    1
    76    76    77    1
    77    76    75    1
    78    80    79    1
    79    72    75    1
    80    72    73    1
    81    84    85    2
    82    74    73    2
    83    77    78    1
    84    79    78    2
    85    79    81    1
