@<TRIPOS>MOLECULE
tmp/2hdrB02.pdb
 72 69 0 0 0
SMALL
GASTEIGER

@<TRIPOS>ATOM
      1  N         76.2270   12.6200   33.4570 N.3   117  GLN117     -0.1245
      2  CA        76.5330   11.9030   34.6880 C.3   117  GLN117      0.1566
      3  C         75.8710   12.5610   35.8730 C.2   117  GLN117      0.2260
      4  O         75.7520   13.7800   35.9220 O.2   117  GLN117     -0.2867
      5  CB        78.0440   11.8740   34.9330 C.3   117  GLN117      0.0367
      6  CG        78.8470   11.1900   33.8450 C.3   117  GLN117      0.0905
      7  CD        78.5610    9.7110   33.7420 C.2   117  GLN117      0.2608
      8  OE1       77.9060    9.1170   34.6090 O.2   117  GLN117     -0.2717
      9  NE2       79.0580    9.0960   32.6720 N.am  117  GLN117     -0.0878
     10  N         72.7870    9.6120   31.9410 N.3   149  ASN149     -0.1240
     11  CA        72.5550    8.6790   33.0520 C.3   149  ASN149      0.1653
     12  C         71.6080    9.2430   34.1190 C.2   149  ASN149      0.2266
     13  O         70.8510    8.4950   34.7490 O.2   149  ASN149     -0.2867
     14  CB        73.8830    8.2650   33.7080 C.3   149  ASN149      0.1155
     15  CG        74.7480    7.3910   32.7960 C.2   149  ASN149      0.2627
     16  OD1       74.2470    6.4960   32.1200 O.2   149  ASN149     -0.2716
     17  ND2       76.0540    7.6610   32.7730 N.am  149  ASN149     -0.0877
     18  N         87.2990   -2.3840   37.9960 N.3   207  HIS207     -0.1226
     19  CA        85.8550   -2.6260   38.0440 C.3   207  HIS207      0.1752
     20  C         85.0870   -1.3010   38.1880 C.2   207  HIS207      0.2596
     21  O         85.6300   -0.2940   38.6600 O.2   207  HIS207     -0.2718
     22  CB        85.4900   -3.5820   39.1820 C.3   207  HIS207      0.0759
     23  CG        85.7190   -5.0280   38.8590 C.ar  207  HIS207      0.0818
     24  ND1       85.9450   -5.9800   39.8290 N.ar  207  HIS207     -0.2268
     25  CD2       85.7750   -5.6810   37.6740 C.ar  207  HIS207      0.1154
     26  CE1       86.1150   -7.1570   39.2570 C.ar  207  HIS207      0.1986
     27  NE2       86.0210   -7.0020   37.9490 N.ar  207  HIS207     -0.2212
     28  N         83.8230   -1.3110   37.7680 N.am  208  VAL208     -0.1966
     29  CA        82.9720   -0.1230   37.8210 C.3   208  VAL208      0.1727
     30  C         82.8230    0.3580   39.2690 C.2   208  VAL208      0.2616
     31  O         82.5430   -0.4300   40.1730 O.2   208  VAL208     -0.2715
     32  CB        81.5810   -0.3840   37.1830 C.3   208  VAL208      0.0290
     33  CG1       80.8190   -1.4620   37.9420 C.3   208  VAL208      0.0023
     34  CG2       80.7690    0.8970   37.1050 C.3   208  VAL208      0.0023
     35  N         83.0390    1.6490   39.4870 N.am  209  SER209     -0.1950
     36  CA        82.9500    2.2140   40.8340 C.3   209  SER209      0.1924
     37  C         81.4980    2.4860   41.2040 C.2   209  SER209      0.2314
     38  O         80.6770    2.7530   40.3230 O.2   209  SER209     -0.2863
     39  CB        83.7620    3.5060   40.9230 C.3   209  SER209      0.2116
     40  OG        83.3070    4.4430   39.9640 O.3   209  SER209     -0.2180
     41  N         73.8300    1.8980   34.7000 N.3   218  TYR218     -0.1241
     42  CA        75.0050    1.2030   34.1590 C.3   218  TYR218      0.1605
     43  C         75.5620    0.0640   35.0260 C.2   218  TYR218      0.2264
     44  O         76.7080   -0.3590   34.8250 O.2   218  TYR218     -0.2867
     45  CB        76.1190    2.2270   33.8760 C.3   218  TYR218      0.0534
     46  CG        76.5250    3.0660   35.0870 C.ar  218  TYR218     -0.0201
     47  CD1       77.4730    2.6060   36.0030 C.ar  218  TYR218     -0.0009
     48  CD2       75.9560    4.3120   35.3130 C.ar  218  TYR218     -0.0009
     49  CE1       77.8410    3.3720   37.1160 C.ar  218  TYR218      0.0417
     50  CE2       76.3230    5.0850   36.4040 C.ar  218  TYR218      0.0417
     51  CZ        77.2590    4.6080   37.3100 C.ar  218  TYR218      0.1957
     52  OH        77.6080    5.3780   38.4000 O.3   218  TYR218     -0.2866
     53  N         79.2910    0.8640   27.9180 N.3   315  ALA315     -0.1231
     54  CA        80.6770    0.8550   28.3590 C.3   315  ALA315      0.1694
     55  C         80.7970    1.2730   29.8190 C.2   315  ALA315      0.2593
     56  O         80.0050    2.0670   30.3110 O.2   315  ALA315     -0.2718
     57  CB        81.5110    1.7670   27.4920 C.3   315  ALA315      0.0304
     58  N         81.7510    0.6600   30.5140 N.am  316  THR316     -0.1939
     59  CA        82.2450    1.1480   31.7880 C.3   316  THR316      0.2028
     60  C         83.6960    1.5330   31.5000 C.2   316  THR316      0.2643
     61  O         84.1250    1.5130   30.3320 O.2   316  THR316     -0.2714
     62  CB        82.1270    0.0830   32.9150 C.3   316  THR316      0.1808
     63  OG1       82.8930   -1.0930   32.5900 O.3   316  THR316     -0.2208
     64  CG2       80.6630   -0.3130   33.1450 C.3   316  THR316      0.0379
     65  N         84.4610    1.8960   32.5260 N.am  317  GLY317     -0.1939
     66  CA        85.8740    2.2290   32.3110 C.3   317  GLY317      0.2014
     67  C         86.6780    1.0650   31.7550 C.2   317  GLY317      0.2639
     68  O         87.5770    1.2470   30.9200 O.2   317  GLY317     -0.2714
     69  N         86.3570   -0.1400   32.2050 N.am  318  GLY318     -0.1954
     70  CA        87.0950   -1.3410   31.7780 C.3   318  GLY318      0.1869
     71  C         86.4180   -2.2930   30.7950 C.2   318  GLY318      0.2309
     72  O         87.0460   -3.2790   30.3780 O.2   318  GLY318     -0.2863
@<TRIPOS>BOND
     1    57    54    1
     2    53    54    1
     3    54    55    1
     4    55    56    2
     5    55    58   am
     6    61    60    2
     7    72    71    2
     8    58    59    1
     9    71    70    1
    10    68    67    2
    11    60    59    1
    12    60    65   am
    13    67    69   am
    14    67    66    1
    15    70    69    1
    16    59    62    1
    17    10    11    1
    18    16    15    2
    19    66    65    1
    20    63    62    1
    21     9     7   am
    22    17    15   am
    23    15    14    1
    24    62    64    1
    25    11    14    1
    26    11    12    1
    27     1     2    1
    28     7     6    1
    29     7     8    2
    30     6     5    1
    31    45    42    1
    32    45    46    1
    33    12    13    2
    34    42    41    1
    35    42    43    1
    36     2     5    1
    37     2     3    1
    38    44    43    2
    39    46    48   ar
    40    46    47   ar
    41    48    50   ar
    42     3     4    2
    43    47    49   ar
    44    50    51   ar
    45    34    32    1
    46    49    51   ar
    47    32    29    1
    48    32    33    1
    49    51    52    1
    50    25    27   ar
    51    25    23   ar
    52    28    29    1
    53    28    20   am
    54    29    30    1
    55    27    26   ar
    56    18    19    1
    57    19    20    1
    58    19    22    1
    59    20    21    2
    60    23    22    1
    61    23    24   ar
    62    26    24   ar
    63    30    35   am
    64    30    31    2
    65    35    36    1
    66    40    39    1
    67    38    37    2
    68    36    39    1
    69    36    37    1
