@<TRIPOS>MOLECULE
tmp/2hdrB03.pdb
 82 84 0 0 0
SMALL
GASTEIGER

@<TRIPOS>ATOM
      1  N         58.0810    9.8490   30.7670 N.3   104  LEU104     -0.1231
      2  CA        58.5610    9.6240   29.3980 C.3   104  LEU104      0.1693
      3  C         59.8290   10.4310   29.1360 C.2   104  LEU104      0.2592
      4  O         60.7990    9.9050   28.6200 O.2   104  LEU104     -0.2718
      5  CB        57.5020    9.9970   28.3510 C.3   104  LEU104      0.0284
      6  CG        57.9550    9.8350   26.8910 C.3   104  LEU104      0.0019
      7  CD1       58.2880    8.3700   26.5530 C.3   104  LEU104      0.0001
      8  CD2       56.9220   10.4340   25.9180 C.3   104  LEU104      0.0001
      9  N         59.7960   11.7150   29.4980 N.am  105  HIS105     -0.1976
     10  CA        60.9340   12.6160   29.3210 C.3   105  HIS105      0.1656
     11  C         62.1970   12.0630   29.9730 C.2   105  HIS105      0.2291
     12  O         63.2540   12.0270   29.3400 O.2   105  HIS105     -0.2864
     13  CB        60.6140   14.0110   29.8650 C.3   105  HIS105      0.0771
     14  CG        59.5580   14.7360   29.0850 C.ar  105  HIS105      0.0820
     15  ND1       58.6400   15.5740   29.6730 N.ar  105  HIS105     -0.2267
     16  CD2       59.2680   14.7330   27.7630 C.ar  105  HIS105      0.1154
     17  CE1       57.8390   16.0730   28.7470 C.ar  105  HIS105      0.1986
     18  NE2       58.2080   15.5870   27.5770 N.ar  105  HIS105     -0.2212
     19  N         60.6370   17.7250   26.1820 N.3   142  GLY142     -0.1225
     20  CA        60.1660   17.0510   24.9800 C.3   142  GLY142      0.1811
     21  C         60.5860   17.6770   23.6600 C.2   142  GLY142      0.2280
     22  O         59.9120   17.4910   22.6470 O.2   142  GLY142     -0.2866
     23  N         58.9010    6.2670   20.4980 N.3   256  TYR256     -0.1227
     24  CA        58.3290    7.4670   21.1300 C.3   256  TYR256      0.1736
     25  C         58.8110    8.7690   20.4800 C.2   256  TYR256      0.2595
     26  O         58.0690    9.7560   20.4210 O.2   256  TYR256     -0.2718
     27  CB        58.6580    7.4740   22.6240 C.3   256  TYR256      0.0548
     28  CG        58.1050    6.2700   23.3740 C.ar  256  TYR256     -0.0200
     29  CD1       56.8340    6.2970   23.9320 C.ar  256  TYR256     -0.0009
     30  CD2       58.8640    5.1080   23.5260 C.ar  256  TYR256     -0.0009
     31  CE1       56.3190    5.1930   24.6260 C.ar  256  TYR256      0.0417
     32  CE2       58.3600    3.9980   24.2130 C.ar  256  TYR256      0.0417
     33  CZ        57.0870    4.0530   24.7640 C.ar  256  TYR256      0.1957
     34  OH        56.5770    2.9640   25.4270 O.3   256  TYR256     -0.2866
     35  N         60.0620    8.7660   20.0180 N.am  257  TRP257     -0.1976
     36  CA        60.7070    9.9420   19.4460 C.3   257  TRP257      0.1640
     37  C         61.5020    9.5580   18.2190 C.2   257  TRP257      0.2290
     38  O         61.9950    8.4330   18.1190 O.2   257  TRP257     -0.2864
     39  CB        61.6910   10.5680   20.4410 C.3   257  TRP257      0.0576
     40  CG        61.0950   10.9450   21.7480 C.ar  257  TRP257      0.0006
     41  CD1       61.1720   10.2450   22.9110 C.ar  257  TRP257      0.0946
     42  CD2       60.3420   12.1290   22.0340 C.ar  257  TRP257      0.0152
     43  NE1       60.5040   10.9170   23.9090 N.ar  257  TRP257     -0.2442
     44  CE2       59.9840   12.0760   23.3960 C.ar  257  TRP257      0.0810
     45  CE3       59.9230   13.2230   21.2650 C.ar  257  TRP257      0.0012
     46  CZ2       59.2350   13.0810   24.0150 C.ar  257  TRP257      0.0191
     47  CZ3       59.1800   14.2220   21.8790 C.ar  257  TRP257      0.0001
     48  CH2       58.8460   14.1450   23.2450 C.ar  257  TRP257      0.0015
     49  N         58.1280   14.2660   18.1810 N.3   297  ALA297     -0.1231
     50  CA        57.2440   13.3510   18.8960 C.3   297  ALA297      0.1694
     51  C         56.5140   12.4770   17.8880 C.2   297  ALA297      0.2592
     52  O         56.0340   12.9680   16.8610 O.2   297  ALA297     -0.2718
     53  CB        56.2410   14.1180   19.7710 C.3   297  ALA297      0.0304
     54  N         56.4720   11.1760   18.1600 N.am  298  ILE298     -0.1966
     55  CA        55.7310   10.2480   17.3180 C.3   298  ILE298      0.1727
     56  C         54.3370   10.1450   17.9260 C.2   298  ILE298      0.2617
     57  O         54.1590    9.5040   18.9540 O.2   298  ILE298     -0.2715
     58  CB        56.4220    8.8730   17.2190 C.3   298  ILE298      0.0290
     59  CG1       57.8750    9.0510   16.7620 C.3   298  ILE298      0.0022
     60  CG2       55.6920    7.9890   16.2330 C.3   298  ILE298      0.0023
     61  CD1       58.6640    7.7730   16.6730 C.3   298  ILE298      0.0001
     62  N         53.3690   10.8200   17.3010 N.am  299  THR299     -0.1937
     63  CA        52.0380   11.0130   17.8790 C.3   299  THR299      0.2013
     64  C         50.9720   10.1840   17.1480 C.2   299  THR299      0.2484
     65  O         50.5260   10.5650   16.0600 O.2   299  THR299     -0.2729
     66  CB        51.6390   12.5180   17.8520 C.3   299  THR299      0.1807
     67  OG1       51.7030   13.0190   16.5090 O.3   299  THR299     -0.2208
     68  CG2       52.5730   13.3320   18.7160 C.3   299  THR299      0.0379
     69  N         50.5750    9.0310   17.7210 N.am  300  PRO300     -0.2715
     70  CA        51.0320    8.3670   18.9370 C.3   300  PRO300      0.1521
     71  C         52.2390    7.4660   18.6460 C.2   300  PRO300      0.2440
     72  O         52.5980    7.2990   17.4880 O.2   300  PRO300     -0.2731
     73  CB        49.8170    7.5250   19.3360 C.3   300  PRO300      0.0310
     74  CG        49.2040    7.1510   18.0550 C.3   300  PRO300      0.0237
     75  CD        49.5190    8.2420   17.0610 C.3   300  PRO300      0.0939
     76  N         52.8650    6.8890   19.6930 N.am  301  PRO301     -0.2727
     77  CA        54.0410    6.0620   19.4850 C.3   301  PRO301      0.1402
     78  C         53.7540    4.8290   18.6440 C.2   301  PRO301      0.2269
     79  O         52.6780    4.2500   18.7490 O.2   301  PRO301     -0.2865
     80  CB        54.4460    5.6560   20.9150 C.3   301  PRO301      0.0296
     81  CG        53.8440    6.6600   21.7840 C.3   301  PRO301      0.0237
     82  CD        52.5290    6.9610   21.1230 C.3   301  PRO301      0.0939
@<TRIPOS>BOND
     1    65    64    2
     2    60    58    1
     3    67    66    1
     4    61    59    1
     5    59    58    1
     6    52    51    2
     7    75    69    1
     8    75    74    1
     9    64    69   am
    10    64    63    1
    11    58    55    1
    12    62    63    1
    13    62    56   am
    14    55    56    1
    15    55    54    1
    16    72    71    2
    17    69    70    1
    18    66    63    1
    19    66    68    1
    20    51    54   am
    21    51    50    1
    22    56    57    2
    23    74    73    1
    24    38    37    2
    25    49    50    1
    26    37    36    1
    27    78    79    2
    28    78    77    1
    29    71    70    1
    30    71    76   am
    31    50    53    1
    32    70    73    1
    33    36    35    1
    34    36    39    1
    35    77    76    1
    36    77    80    1
    37    76    82    1
    38    35    25   am
    39    26    25    2
    40    39    40    1
    41    25    24    1
    42    23    24    1
    43    80    81    1
    44    82    81    1
    45    24    27    1
    46    45    47   ar
    47    45    42   ar
    48    40    42   ar
    49    40    41   ar
    50    47    48   ar
    51    42    44   ar
    52    27    28    1
    53    22    21    2
    54    41    43   ar
    55    48    46   ar
    56    28    30   ar
    57    28    29   ar
    58    44    43   ar
    59    44    46   ar
    60    30    32   ar
    61    21    20    1
    62    29    31   ar
    63    32    33   ar
    64    31    33   ar
    65    33    34    1
    66    20    19    1
    67     8     6    1
    68     7     6    1
    69     6     5    1
    70    18    16   ar
    71    18    17   ar
    72    16    14   ar
    73     5     2    1
    74     4     3    2
    75    17    15   ar
    76    14    15   ar
    77    14    13    1
    78     3     2    1
    79     3     9   am
    80    10     9    1
    81    10    13    1
    82    10    11    1
    83    12    11    2
    84     2     1    1
