@<TRIPOS>MOLECULE
tmp/2hdsA02.pdb
 89 92 0 0 0
SMALL
GASTEIGER

@<TRIPOS>ATOM
      1  N         46.2240    8.0100   13.6860 N.3   104  LEU104     -0.1231
      2  CA        45.7770    8.0950   15.0700 C.3   104  LEU104      0.1693
      3  C         44.6310    9.0940   15.1750 C.2   104  LEU104      0.2592
      4  O         43.6230    8.8140   15.8330 O.2   104  LEU104     -0.2718
      5  CB        46.9080    8.5570   15.9980 C.3   104  LEU104      0.0284
      6  CG        46.4490    8.7640   17.4280 C.3   104  LEU104      0.0019
      7  CD1       45.9920    7.4610   18.0550 C.3   104  LEU104      0.0001
      8  CD2       47.5710    9.4090   18.2470 C.3   104  LEU104      0.0001
      9  N         44.7790   10.2600   14.6010 N.am  105  HIS105     -0.1976
     10  CA        43.7330   11.2790   14.6840 C.3   105  HIS105      0.1656
     11  C         42.4150   10.7580   14.1140 C.2   105  HIS105      0.2291
     12  O         41.3680   10.9600   14.7050 O.2   105  HIS105     -0.2864
     13  CB        44.1480   12.5520   13.9510 C.3   105  HIS105      0.0771
     14  CG        45.3120   13.2480   14.5350 C.ar  105  HIS105      0.0820
     15  ND1       46.3370   13.6830   13.7540 N.ar  105  HIS105     -0.2267
     16  CD2       45.5910   13.5760   15.8200 C.ar  105  HIS105      0.1154
     17  CE1       47.2300   14.2470   14.5600 C.ar  105  HIS105      0.1986
     18  NE2       46.7850   14.2320   15.8170 N.ar  105  HIS105     -0.2212
     19  N         44.7220   19.5180   14.4790 N.2   141  PRO141     -0.2571
     20  CA        44.6580   18.1080   14.8580 C.3   141  PRO141      0.2026
     21  C         45.1330   17.9400   16.2970 C.2   141  PRO141      0.2684
     22  O         46.0300   18.6480   16.7570 O.2   141  PRO141     -0.2709
     23  CB        45.5950   17.4260   13.8770 C.2   141  PRO141      0.0085
     24  CG        46.0970   18.3570   13.0620 C.2   141  PRO141      0.0180
     25  CD        45.6150   19.7280   13.3310 C.2   141  PRO141      0.0938
     26  N         44.6020   16.9300   16.9660 N.am  142  GLY142     -0.1950
     27  CA        45.1140   16.5770   18.2680 C.3   142  GLY142      0.1869
     28  C         44.7340   17.5010   19.3830 C.2   142  GLY142      0.2309
     29  O         45.4030   17.5240   20.4110 O.2   142  GLY142     -0.2863
     30  N         44.9170    6.6020   24.4780 N.3   256  TYR256     -0.1227
     31  CA        45.5770    7.5610   23.6110 C.3   256  TYR256      0.1736
     32  C         45.3390    9.0080   23.9710 C.2   256  TYR256      0.2595
     33  O         46.1980    9.8680   23.7530 O.2   256  TYR256     -0.2718
     34  CB        45.1460    7.3440   22.1370 C.3   256  TYR256      0.0548
     35  CG        45.5470    5.9860   21.6050 C.ar  256  TYR256     -0.0200
     36  CD1       46.7620    5.7560   21.0140 C.ar  256  TYR256     -0.0009
     37  CD2       44.7000    4.8890   21.7140 C.ar  256  TYR256     -0.0009
     38  CE1       47.1390    4.4930   20.5760 C.ar  256  TYR256      0.0417
     39  CE2       45.0650    3.6260   21.2910 C.ar  256  TYR256      0.0417
     40  CZ        46.2970    3.4420   20.7110 C.ar  256  TYR256      0.1957
     41  OH        46.6910    2.1970   20.2890 O.3   256  TYR256     -0.2866
     42  N         44.1480    9.3030   24.4900 N.am  257  TRP257     -0.1976
     43  CA        43.7050   10.6520   24.8380 C.3   257  TRP257      0.1640
     44  C         42.8740   10.5340   26.0580 C.2   257  TRP257      0.2290
     45  O         42.1780    9.5350   26.2720 O.2   257  TRP257     -0.2864
     46  CB        42.8140   11.2410   23.7390 C.3   257  TRP257      0.0576
     47  CG        43.4320   11.2650   22.3810 C.ar  257  TRP257      0.0006
     48  CD1       43.2380   10.3370   21.4090 C.ar  257  TRP257      0.0946
     49  CD2       44.3430   12.2280   21.8500 C.ar  257  TRP257      0.0152
     50  NE1       43.9800   10.6570   20.3210 N.ar  257  TRP257     -0.2442
     51  CE2       44.6630   11.8130   20.5380 C.ar  257  TRP257      0.0810
     52  CE3       44.8710   13.4300   22.3320 C.ar  257  TRP257      0.0012
     53  CZ2       45.4820   12.5270   19.7130 C.ar  257  TRP257      0.0191
     54  CZ3       45.7090   14.1530   21.4850 C.ar  257  TRP257      0.0001
     55  CH2       46.0150   13.6950   20.1940 C.ar  257  TRP257      0.0015
     56  N         46.6780   14.6030   25.2440 N.3   297  ALA297     -0.1231
     57  CA        47.4010   13.4660   24.6940 C.3   297  ALA297      0.1694
     58  C         48.0500   12.6740   25.7850 C.2   297  ALA297      0.2592
     59  O         48.6080   13.2550   26.7120 O.2   297  ALA297     -0.2718
     60  CB        48.4950   13.9600   23.7580 C.3   297  ALA297      0.0304
     61  N         47.9780   11.3580   25.6990 N.am  298  ILE298     -0.1966
     62  CA        48.6680   10.4520   26.6450 C.3   298  ILE298      0.1727
     63  C         49.8930    9.9800   25.8910 C.2   298  ILE298      0.2617
     64  O         49.8110    9.2050   24.9580 O.2   298  ILE298     -0.2715
     65  CB        47.7540    9.3130   27.0740 C.3   298  ILE298      0.0290
     66  CG1       46.4680    9.8660   27.6600 C.3   298  ILE298      0.0022
     67  CG2       48.5000    8.4130   28.0440 C.3   298  ILE298      0.0023
     68  CD1       46.5300   10.5940   28.8720 C.3   298  ILE298      0.0001
     69  N         51.0200   10.5370   26.2740 N.am  299  THR299     -0.1937
     70  CA        52.2490   10.4230   25.4770 C.3   299  THR299      0.2013
     71  C         53.3260    9.7420   26.3100 C.2   299  THR299      0.2484
     72  O         53.9180   10.3520   27.2080 O.2   299  THR299     -0.2729
     73  CB        52.7610   11.7670   25.0210 C.3   299  THR299      0.1807
     74  OG1       51.7410   12.4670   24.3190 O.3   299  THR299     -0.2208
     75  CG2       53.8990   11.3700   23.9480 C.3   299  THR299      0.0379
     76  N         53.6280    8.4800   26.0800 N.am  300  PRO300     -0.2715
     77  CA        53.0270    7.5860   25.0890 C.3   300  PRO300      0.1521
     78  C         51.7610    6.9650   25.6110 C.2   300  PRO300      0.2440
     79  O         51.4770    7.0250   26.8070 O.2   300  PRO300     -0.2731
     80  CB        54.0890    6.5420   24.8760 C.3   300  PRO300      0.0310
     81  CG        54.7450    6.4460   26.2290 C.3   300  PRO300      0.0237
     82  CD        54.6650    7.7710   26.8680 C.3   300  PRO300      0.0939
     83  N         50.9580    6.3270   24.7510 N.am  301  PRO301     -0.2727
     84  CA        49.7050    5.7320   25.2010 C.3   301  PRO301      0.1402
     85  C         49.9500    4.6910   26.2660 C.2   301  PRO301      0.2269
     86  O         50.9010    3.9040   26.1970 O.2   301  PRO301     -0.2865
     87  CB        49.1170    5.1310   23.9140 C.3   301  PRO301      0.0296
     88  CG        49.6580    6.0030   22.8610 C.3   301  PRO301      0.0237
     89  CD        51.0740    6.2780   23.2930 C.3   301  PRO301      0.0939
@<TRIPOS>BOND
     1    24    25    1
     2    24    23    2
     3    25    19    2
     4     1     2    1
     5    15    14   ar
     6    15    17   ar
     7    23    20    1
     8    13    14    1
     9    13    10    1
    10    11    10    1
    11    11    12    2
    12    19    20    1
    13    14    16   ar
    14    17    18   ar
    15     9    10    1
    16     9     3   am
    17    20    21    1
    18     2     3    1
    19     2     5    1
    20     3     4    2
    21    18    16   ar
    22     5     6    1
    23    21    22    2
    24    21    26   am
    25    26    27    1
    26     6     7    1
    27     6     8    1
    28    27    28    1
    29    28    29    2
    30    53    55   ar
    31    53    51   ar
    32    55    54   ar
    33    41    40    1
    34    50    51   ar
    35    50    48   ar
    36    51    49   ar
    37    38    40   ar
    38    38    36   ar
    39    40    39   ar
    40    36    35   ar
    41    39    37   ar
    42    48    47   ar
    43    54    52   ar
    44    35    37   ar
    45    35    34    1
    46    49    52   ar
    47    49    47   ar
    48    34    31    1
    49    47    46    1
    50    88    89    1
    51    88    87    1
    52    89    83    1
    53    31    32    1
    54    31    30    1
    55    46    43    1
    56    33    32    2
    57    60    57    1
    58    87    84    1
    59    75    73    1
    60    32    42   am
    61    74    73    1
    62    42    43    1
    63    57    56    1
    64    57    58    1
    65    83    84    1
    66    83    78   am
    67    43    44    1
    68    80    77    1
    69    80    81    1
    70    64    63    2
    71    73    70    1
    72    77    78    1
    73    77    76    1
    74    84    85    1
    75    70    69    1
    76    70    71    1
    77    78    79    2
    78    61    58   am
    79    61    62    1
    80    58    59    2
    81    63    69   am
    82    63    62    1
    83    44    45    2
    84    76    71   am
    85    76    82    1
    86    86    85    2
    87    81    82    1
    88    71    72    2
    89    62    65    1
    90    65    66    1
    91    65    67    1
    92    66    68    1
