@<TRIPOS>MOLECULE
tmp/2hdsA01.pdb
 99 93 0 0 0
SMALL
GASTEIGER

@<TRIPOS>ATOM
      1  N         29.9470   14.1850   11.6990 N.3   116  LEU116     -0.1245
      2  CA        29.4240   12.9630   12.2980 C.3   116  LEU116      0.1561
      3  C         29.1570   11.9210   11.2350 C.2   116  LEU116      0.2260
      4  O         29.4560   10.7440   11.4560 O.2   116  LEU116     -0.2867
      5  CB        28.1550   13.2790   13.1100 C.3   116  LEU116      0.0270
      6  CG        27.4920   12.0780   13.7370 C.3   116  LEU116      0.0019
      7  CD1       28.4040   11.3330   14.7280 C.3   116  LEU116      0.0001
      8  CD2       26.2060   12.4900   14.4520 C.3   116  LEU116      0.0001
      9  N         38.3030   16.2580   20.7130 N.3   145  ARG145     -0.1245
     10  CA        37.5820   15.0680   20.3070 C.3   145  ARG145      0.1563
     11  C         36.1860   15.4540   19.8990 C.2   145  ARG145      0.2260
     12  O         35.4730   16.1340   20.6390 O.2   145  ARG145     -0.2867
     13  CB        37.5180   14.0820   21.4800 C.3   145  ARG145      0.0307
     14  CG        36.8300   12.7710   21.1800 C.3   145  ARG145      0.0489
     15  CD        36.6710   11.9490   22.4250 C.3   145  ARG145      0.2205
     16  NE        35.9990   10.6790   22.2150 N.pl3 145  ARG145     -0.0865
     17  CZ        34.6990   10.5280   22.1670 C.cat 145  ARG145      0.5346
     18  NH1       33.8790   11.5860   22.2360 N.pl3 145  ARG145      0.1354
     19  NH2       34.1560    9.3300   22.0290 N.pl3 145  ARG145      0.1354
     20  N         33.1310   13.1120   18.1680 N.3   147  TYR147     -0.1241
     21  CA        32.7520   11.8140   17.6630 C.3   147  TYR147      0.1605
     22  C         32.3030   11.9210   16.2100 C.2   147  TYR147      0.2264
     23  O         31.5490   12.8080   15.8330 O.2   147  TYR147     -0.2867
     24  CB        31.6420   11.2820   18.5450 C.3   147  TYR147      0.0534
     25  CG        31.2010    9.9110   18.2250 C.ar  147  TYR147     -0.0201
     26  CD1       30.0050    9.6710   17.5990 C.ar  147  TYR147     -0.0009
     27  CD2       31.9250    8.8060   18.6390 C.ar  147  TYR147     -0.0009
     28  CE1       29.5270    8.3680   17.4220 C.ar  147  TYR147      0.0417
     29  CE2       31.4630    7.5180   18.4840 C.ar  147  TYR147      0.0417
     30  CZ        30.2800    7.3260   17.8810 C.ar  147  TYR147      0.1957
     31  OH        29.7620    6.0230   17.7990 O.3   147  TYR147     -0.2866
     32  N         36.3080    2.7100   24.3940 N.3   269  GLU269     -0.1245
     33  CA        36.5320    3.7970   25.3390 C.3   269  GLU269      0.1567
     34  C         36.6430    3.2020   26.7240 C.2   269  GLU269      0.2260
     35  O         36.0990    2.1470   26.9910 O.2   269  GLU269     -0.2867
     36  CB        35.3430    4.8030   25.2940 C.3   269  GLU269      0.0388
     37  CG        35.2100    5.4110   23.8990 C.3   269  GLU269      0.1160
     38  CD        33.9170    6.1170   23.6390 C.2   269  GLU269      0.3649
     39  OE1       33.2240    6.4800   24.6190 O.co2 269  GLU269     -0.2457
     40  OE2       33.6190    6.3630   22.4520 O.co2 269  GLU269     -0.2457
     41  N         29.8820   12.6250   29.5070 N.3   285  ASP285     -0.1239
     42  CA        30.1450   11.4860   28.6400 C.3   285  ASP285      0.1674
     43  C         28.9300   10.5980   28.4920 C.2   285  ASP285      0.2266
     44  O         29.0760    9.4130   28.1700 O.2   285  ASP285     -0.2867
     45  CB        31.3350   10.7410   29.1820 C.3   285  ASP285      0.1410
     46  CG        32.0070    9.8480   28.2190 C.2   285  ASP285      0.3668
     47  OD1       32.0040   10.1060   26.9940 O.co2 285  ASP285     -0.2456
     48  OD2       32.6460    8.8810   28.7180 O.co2 285  ASP285     -0.2456
     49  N         26.5900   10.8160   26.1840 N.3   287  LYS287     -0.1231
     50  CA        26.3270   10.5960   24.7600 C.3   287  LYS287      0.1693
     51  C         25.0180   11.1550   24.2690 C.2   287  LYS287      0.2592
     52  O         24.6220   10.8980   23.1490 O.2   287  LYS287     -0.2718
     53  CB        26.5040    9.1090   24.3400 C.3   287  LYS287      0.0285
     54  CG        27.6690    8.3710   24.9420 C.3   287  LYS287      0.0035
     55  CD        29.0200    9.0420   24.6910 C.3   287  LYS287      0.0206
     56  CE        30.1350    8.0600   25.0490 C.3   287  LYS287      0.1093
     57  NZ        31.4760    8.5980   24.7640 N.3   287  LYS287     -0.1314
     58  N         24.3320   11.9650   25.0810 N.am  288  ILE288     -0.1966
     59  CA        23.0790   12.5700   24.6400 C.3   288  ILE288      0.1727
     60  C         23.3500   13.6490   23.6040 C.2   288  ILE288      0.2616
     61  O         22.6030   13.7370   22.6060 O.2   288  ILE288     -0.2715
     62  CB        22.3090   13.0950   25.8320 C.3   288  ILE288      0.0290
     63  CG1       21.7150   11.9390   26.6480 C.3   288  ILE288      0.0022
     64  CG2       21.2380   14.1060   25.4310 C.3   288  ILE288      0.0023
     65  CD1       20.6200   11.1910   25.9570 C.3   288  ILE288      0.0001
     66  N         24.3510   14.4770   23.8370 N.am  289  ALA289     -0.1963
     67  CA        24.7740   15.4890   22.9030 C.3   289  ALA289      0.1728
     68  C         25.9580   15.0500   22.0850 C.2   289  ALA289      0.2616
     69  O         26.7410   14.2240   22.5230 O.2   289  ALA289     -0.2715
     70  CB        25.1600   16.7680   23.6440 C.3   289  ALA289      0.0334
     71  N         26.1350   15.6290   20.9260 N.am  290  LEU290     -0.1963
     72  CA        27.3990   15.6200   20.2100 C.3   290  LEU290      0.1728
     73  C         28.2660   16.7150   20.7890 C.2   290  LEU290      0.2616
     74  O         27.9520   17.8940   20.6350 O.2   290  LEU290     -0.2715
     75  CB        27.1850   15.7970   18.7210 C.3   290  LEU290      0.0311
     76  CG        28.4810   15.7720   17.8980 C.3   290  LEU290      0.0022
     77  CD1       29.1680   14.4220   17.9510 C.3   290  LEU290      0.0001
     78  CD2       28.2060   16.1600   16.4860 C.3   290  LEU290      0.0001
     79  N         29.2910   16.3040   21.5380 N.am  291  ALA291     -0.1977
     80  CA        30.1060   17.2130   22.3160 C.3   291  ALA291      0.1597
     81  C         31.5130   17.3120   21.7820 C.2   291  ALA291      0.2287
     82  O         32.2320   16.3190   21.6020 O.2   291  ALA291     -0.2864
     83  CB        30.1530   16.7440   23.7790 C.3   291  ALA291      0.0319
     84  N         31.4750    0.4820   24.8520 N.3   312  LYS312     -0.1231
     85  CA        31.0280    1.1780   23.6500 C.3   312  LYS312      0.1693
     86  C         29.5370    1.0530   23.5300 C.2   312  LYS312      0.2592
     87  O         28.9750   -0.0300   23.6440 O.2   312  LYS312     -0.2718
     88  CB        31.7160    0.6490   22.3830 C.3   312  LYS312      0.0285
     89  CG        31.4300    1.4720   21.1260 C.3   312  LYS312      0.0035
     90  CD        32.0350    2.8780   21.1580 C.3   312  LYS312      0.0206
     91  CE        31.6700    3.7230   19.9490 C.3   312  LYS312      0.1093
     92  NZ        30.3650    4.4710   20.1490 N.3   312  LYS312     -0.1314
     93  N         28.8790    2.1640   23.2150 N.am  313  THR313     -0.1953
     94  CA        27.4750    2.2220   22.8680 C.3   313  THR313      0.1897
     95  C         27.3110    2.2740   21.3700 C.2   313  THR313      0.2313
     96  O         28.1560    2.7800   20.6370 O.2   313  THR313     -0.2863
     97  CB        26.8090    3.4130   23.5510 C.3   313  THR313      0.1794
     98  OG1       25.4130    3.1900   23.5310 O.3   313  THR313     -0.2208
     99  CG2       27.1900    4.7220   22.9610 C.3   313  THR313      0.0378
@<TRIPOS>BOND
     1     3     4    2
     2     3     2    1
     3     1     2    1
     4     2     5    1
     5     5     6    1
     6     6     8    1
     7     6     7    1
     8    23    22    2
     9    22    21    1
    10    78    76    1
    11    28    26   ar
    12    28    30   ar
    13    26    25   ar
    14    21    20    1
    15    21    24    1
    16    31    30    1
    17    30    29   ar
    18    76    77    1
    19    76    75    1
    20    25    24    1
    21    25    27   ar
    22    29    27   ar
    23    75    72    1
    24    11    10    1
    25    11    12    2
    26    91    92    1
    27    91    90    1
    28    72    73    1
    29    72    71    1
    30    10     9    1
    31    10    13    1
    32    74    73    2
    33    96    95    2
    34    73    79   am
    35    71    68   am
    36    89    90    1
    37    89    88    1
    38    14    13    1
    39    14    15    1
    40    95    94    1
    41    79    80    1
    42    82    81    2
    43    81    80    1
    44    19    17    1
    45    68    69    2
    46    68    67    1
    47    17    16    2
    48    17    18    1
    49    16    15    1
    50    80    83    1
    51    88    85    1
    52    40    38   ar
    53    61    60    2
    54    94    93    1
    55    94    97    1
    56    67    70    1
    57    67    66    1
    58    99    97    1
    59    52    51    2
    60    93    86   am
    61    86    87    2
    62    86    85    1
    63    98    97    1
    64    60    66   am
    65    60    59    1
    66    38    37    1
    67    38    39   ar
    68    85    84    1
    69    37    36    1
    70    51    50    1
    71    51    58   am
    72    53    50    1
    73    53    54    1
    74    32    33    1
    75    59    58    1
    76    59    62    1
    77    55    54    1
    78    55    56    1
    79    50    49    1
    80    57    56    1
    81    36    33    1
    82    33    34    1
    83    64    62    1
    84    62    63    1
    85    65    63    1
    86    34    35    2
    87    47    46   ar
    88    44    43    2
    89    46    48   ar
    90    46    45    1
    91    43    42    1
    92    42    45    1
    93    42    41    1
