@<TRIPOS>MOLECULE
tmp/2hdsA00.pdb
 101 94 0 0 0
SMALL
GASTEIGER

@<TRIPOS>ATOM
      1  N         25.3220   -1.1480   15.0760 N.3    60  GLY60      -0.1210
      2  CA        25.5530    0.2810   14.9360 C.3    60  GLY60       0.1956
      3  C         26.9980    0.5760   15.2930 C.2    60  GLY60       0.2612
      4  O         27.9160   -0.1500   14.9470 O.2    60  GLY60      -0.2717
      5  N         27.1800    1.6290   16.0580 N.am   61  SER61      -0.1952
      6  CA        28.5120    2.0650   16.3950 C.3    61  SER61       0.1924
      7  C         29.3340    1.1340   17.2650 C.2    61  SER61       0.2314
      8  O         30.5470    1.3310   17.3790 O.2    61  SER61      -0.2863
      9  CB        28.4830    3.4550   17.0520 C.3    61  SER61       0.2116
     10  OG        28.0910    4.3790   16.0160 O.3    61  SER61      -0.2180
     11  N         29.9470   14.1850   11.6990 N.3   116  LEU116     -0.1231
     12  CA        29.4240   12.9630   12.2980 C.3   116  LEU116      0.1693
     13  C         29.1570   11.9210   11.2350 C.2   116  LEU116      0.2591
     14  O         29.4560   10.7440   11.4560 O.2   116  LEU116     -0.2718
     15  CB        28.1550   13.2790   13.1100 C.3   116  LEU116      0.0284
     16  CG        27.4920   12.0780   13.7370 C.3   116  LEU116      0.0019
     17  CD1       28.4040   11.3330   14.7280 C.3   116  LEU116      0.0001
     18  CD2       26.2060   12.4900   14.4520 C.3   116  LEU116      0.0001
     19  N         28.5730   12.3360   10.1220 N.am  117  GLN117     -0.1979
     20  CA        28.1970   11.4540    9.0300 C.3   117  GLN117      0.1601
     21  C         28.9110   11.7800    7.7580 C.2   117  GLN117      0.2287
     22  O         29.1730   12.9500    7.4590 O.2   117  GLN117     -0.2864
     23  CB        26.7190   11.5640    8.7330 C.3   117  GLN117      0.0394
     24  CG        25.8320   11.3150    9.8880 C.3   117  GLN117      0.0908
     25  CD        25.1920   12.6290   10.4780 C.2   117  GLN117      0.2608
     26  OE1       25.7540   13.7190   10.4020 O.2   117  GLN117     -0.2717
     27  NE2       24.0610   12.4710   11.1260 N.am  117  GLN117     -0.0878
     28  N         33.1310   13.1120   18.1680 N.3   147  TYR147     -0.1241
     29  CA        32.7520   11.8140   17.6630 C.3   147  TYR147      0.1605
     30  C         32.3030   11.9210   16.2100 C.2   147  TYR147      0.2264
     31  O         31.5490   12.8080   15.8330 O.2   147  TYR147     -0.2867
     32  CB        31.6420   11.2820   18.5450 C.3   147  TYR147      0.0534
     33  CG        31.2010    9.9110   18.2250 C.ar  147  TYR147     -0.0201
     34  CD1       30.0050    9.6710   17.5990 C.ar  147  TYR147     -0.0009
     35  CD2       31.9250    8.8060   18.6390 C.ar  147  TYR147     -0.0009
     36  CE1       29.5270    8.3680   17.4220 C.ar  147  TYR147      0.0417
     37  CE2       31.4630    7.5180   18.4840 C.ar  147  TYR147      0.0417
     38  CZ        30.2800    7.3260   17.8810 C.ar  147  TYR147      0.1957
     39  OH        29.7620    6.0230   17.7990 O.3   147  TYR147     -0.2866
     40  N         31.6190    9.3410   12.5120 N.3   149  ASN149     -0.1240
     41  CA        31.7260    8.1700   11.6350 C.3   149  ASN149      0.1653
     42  C         32.6750    8.4120   10.4860 C.2   149  ASN149      0.2266
     43  O         33.3200    7.4830   10.0260 O.2   149  ASN149     -0.2867
     44  CB        30.3380    7.8200   11.0520 C.3   149  ASN149      0.1155
     45  CG        29.3750    7.3570   12.0840 C.2   149  ASN149      0.2627
     46  OD1       29.5050    6.2690   12.5870 O.2   149  ASN149     -0.2716
     47  ND2       28.3940    8.1950   12.4390 N.am  149  ASN149     -0.0877
     48  N         11.3520    1.6590   14.5750 N.3   201  ARG201     -0.1245
     49  CA        11.4420    3.0950   14.7140 C.3   201  ARG201      0.1563
     50  C         10.0800    3.6870   14.3890 C.2   201  ARG201      0.2260
     51  O          9.5530    3.4790   13.2970 O.2   201  ARG201     -0.2867
     52  CB        12.4920    3.6570   13.7890 C.3   201  ARG201      0.0307
     53  CG        12.6990    5.1480   13.9780 C.3   201  ARG201      0.0489
     54  CD        13.7590    5.6540   13.0790 C.3   201  ARG201      0.2205
     55  NE        13.9940    7.0840   13.3020 N.pl3 201  ARG201     -0.0865
     56  CZ        14.9940    7.7830   12.7780 C.cat 201  ARG201      0.5346
     57  NH1       15.8890    7.1920   11.9920 N.pl3 201  ARG201      0.1354
     58  NH2       15.1030    9.0740   13.0600 N.pl3 201  ARG201      0.1354
     59  N         19.1410   -0.9220    8.6460 N.3   208  VAL208     -0.1245
     60  CA        20.0820    0.1170    8.3270 C.3   208  VAL208      0.1561
     61  C         20.2220    0.2400    6.8210 C.2   208  VAL208      0.2260
     62  O         20.2320   -0.7020    6.0790 O.2   208  VAL208     -0.2867
     63  CB        21.4330   -0.1730    9.0240 C.3   208  VAL208      0.0252
     64  CG1       22.1090   -1.4330    8.4720 C.3   208  VAL208      0.0019
     65  CG2       22.3950    1.0220    8.9520 C.3   208  VAL208      0.0019
     66  N         29.6020    1.4700   11.1900 N.3   218  TYR218     -0.1241
     67  CA        28.3540    1.0970   11.8340 C.3   218  TYR218      0.1605
     68  C         27.6900   -0.1000   11.2750 C.2   218  TYR218      0.2264
     69  O         26.4870   -0.3010   11.6030 O.2   218  TYR218     -0.2867
     70  CB        27.3660    2.2950   11.8650 C.3   218  TYR218      0.0534
     71  CG        27.0490    2.8830   10.4900 C.ar  218  TYR218     -0.0201
     72  CD1       26.0810    2.3090    9.6860 C.ar  218  TYR218     -0.0009
     73  CD2       27.7020    4.0100   10.0330 C.ar  218  TYR218     -0.0009
     74  CE1       25.7820    2.8950    8.4390 C.ar  218  TYR218      0.0417
     75  CE2       27.4300    4.5740    8.7730 C.ar  218  TYR218      0.0417
     76  CZ        26.4690    4.0150    8.0120 C.ar  218  TYR218      0.1957
     77  OH        26.1420    4.5490    6.7890 O.3   218  TYR218     -0.2866
     78  N         24.0310    2.5680   18.0720 N.3   315  ALA315     -0.1231
     79  CA        22.6610    2.5490   17.6370 C.3   315  ALA315      0.1694
     80  C         22.6290    2.5470   16.1200 C.2   315  ALA315      0.2593
     81  O         23.5880    2.9140   15.4390 O.2   315  ALA315     -0.2718
     82  CB        21.9020    3.6940   18.1700 C.3   315  ALA315      0.0304
     83  N         21.5030    2.1520   15.5810 N.am  316  THR316     -0.1939
     84  CA        21.0890    2.4650   14.2240 C.3   316  THR316      0.2028
     85  C         19.6670    3.0410   14.3500 C.2   316  THR316      0.2642
     86  O         19.1150    3.1680   15.4320 O.2   316  THR316     -0.2714
     87  CB        21.1130    1.2540   13.2960 C.3   316  THR316      0.1808
     88  OG1       20.1620    0.3130   13.7840 O.3   316  THR316     -0.2208
     89  CG2       22.4800    0.6140   13.1870 C.3   316  THR316      0.0379
     90  N         19.0060    3.3260   13.2360 N.am  317  GLY317     -0.1954
     91  CA        17.6960    3.8950   13.3560 C.3   317  GLY317      0.1869
     92  C         16.7510    2.9750   14.1210 C.2   317  GLY317      0.2309
     93  O         15.8700    3.4760   14.8320 O.2   317  GLY317     -0.2863
     94  N         16.0910    1.7230   19.1480 N.3   340  ASN340     -0.1240
     95  CA        17.0480    2.6790   19.6490 C.3   340  ASN340      0.1653
     96  C         16.3440    3.3380   20.8470 C.2   340  ASN340      0.2266
     97  O         15.1720    3.7460   20.7940 O.2   340  ASN340     -0.2867
     98  CB        17.4390    3.6480   18.5110 C.3   340  ASN340      0.1155
     99  CG        18.5010    4.6380   18.8730 C.2   340  ASN340      0.2627
    100  OD1       19.1460    4.4880   19.9280 O.2   340  ASN340     -0.2716
    101  ND2       18.7680    5.5670   18.0020 N.am  340  ASN340     -0.0877
@<TRIPOS>BOND
     1    62    61    2
     2    77    76    1
     3    61    60    1
     4    22    21    2
     5    21    20    1
     6    76    74   ar
     7    76    75   ar
     8    60    59    1
     9    60    63    1
    10    74    72   ar
    11    64    63    1
    12    23    20    1
    13    23    24    1
    14    75    73   ar
    15    65    63    1
    16    20    19    1
    17    72    71   ar
    18    24    25    1
    19    43    42    2
    20    73    71   ar
    21    19    13   am
    22    26    25    2
    23    25    27   am
    24    42    41    1
    25    71    70    1
    26    44    41    1
    27    44    45    1
    28    66    67    1
    29    13    14    2
    30    13    12    1
    31    68    69    2
    32    68    67    1
    33    41    40    1
    34    11    12    1
    35    67    70    1
    36    57    56    1
    37    45    47   am
    38    45    46    2
    39    12    15    1
    40    56    58    1
    41    56    55    2
    42    54    55    1
    43    54    53    1
    44    15    16    1
    45    89    87    1
    46    90    91    1
    47    90    85   am
    48    87    88    1
    49    87    84    1
    50    51    50    2
    51    91    92    1
    52    16    18    1
    53    16    17    1
    54    52    53    1
    55    52    49    1
    56    92    93    2
    57    84    85    1
    58    84    83    1
    59    85    86    2
    60    50    49    1
    61    48    49    1
    62     2     1    1
    63     2     3    1
    64     4     3    2
    65     3     5   am
    66    81    80    2
    67    83    80   am
    68    31    30    2
    69    10     9    1
    70     5     6    1
    71    80    79    1
    72    30    29    1
    73     6     9    1
    74     6     7    1
    75     7     8    2
    76    36    34   ar
    77    36    38   ar
    78    34    33   ar
    79    79    78    1
    80    79    82    1
    81    29    28    1
    82    29    32    1
    83    39    38    1
    84    38    37   ar
    85   101    99   am
    86    33    32    1
    87    33    35   ar
    88    37    35   ar
    89    98    99    1
    90    98    95    1
    91    99   100    2
    92    94    95    1
    93    95    96    1
    94    97    96    2
