@<TRIPOS>MOLECULE
tmp/2hduA00.pdb
 77 76 0 0 0
SMALL
GASTEIGER

@<TRIPOS>ATOM
      1  N         47.4930   -7.7080   19.4100 N.3   247  GLN247     -0.1245
      2  CA        48.0370   -6.3600   19.5410 C.3   247  GLN247      0.1566
      3  C         46.9870   -5.3270   19.1310 C.2   247  GLN247      0.2260
      4  O         46.8750   -4.2490   19.7530 O.2   247  GLN247     -0.2867
      5  CB        49.3310   -6.1960   18.7220 C.3   247  GLN247      0.0367
      6  CG        50.0180   -4.8310   18.9210 C.3   247  GLN247      0.0905
      7  CD        51.4610   -4.7650   18.3800 C.2   247  GLN247      0.2608
      8  OE1       51.6960   -4.8870   17.1780 O.2   247  GLN247     -0.2717
      9  NE2       52.4130   -4.5270   19.2720 N.am  247  GLN247     -0.0878
     10  N         44.5950   -4.6900   21.9390 N.3   250  GLN250     -0.1231
     11  CA        45.2120   -3.8960   22.9980 C.3   250  GLN250      0.1698
     12  C         45.3120   -2.4290   22.5490 C.2   250  GLN250      0.2592
     13  O         45.1070   -1.5280   23.3650 O.2   250  GLN250     -0.2718
     14  CB        46.5690   -4.4850   23.4300 C.3   250  GLN250      0.0381
     15  CG        46.4540   -5.8940   24.0400 C.3   250  GLN250      0.0905
     16  CD        47.8020   -6.5810   24.2530 C.2   250  GLN250      0.2608
     17  OE1       48.3990   -7.1500   23.3270 O.2   250  GLN250     -0.2717
     18  NE2       48.2740   -6.5420   25.4810 N.am  250  GLN250     -0.0878
     19  N         45.6220   -2.1950   21.2630 N.am  251  LEU251     -0.1980
     20  CA        45.7250   -0.8220   20.7450 C.3   251  LEU251      0.1596
     21  C         44.3450   -0.1230   20.8170 C.2   251  LEU251      0.2287
     22  O         44.2380    1.0760   21.0970 O.2   251  LEU251     -0.2864
     23  CB        46.2790   -0.7980   19.3020 C.3   251  LEU251      0.0297
     24  CG        47.7750   -1.1210   19.1610 C.3   251  LEU251      0.0022
     25  CD1       48.1210   -1.4180   17.6890 C.3   251  LEU251      0.0001
     26  CD2       48.5820    0.0520   19.7190 C.3   251  LEU251      0.0001
     27  N         43.5170    1.1950   24.2490 N.3   254  SER254     -0.1217
     28  CA        44.4440    2.1700   24.8050 C.3   254  SER254      0.1889
     29  C         43.7650    3.5240   24.8650 C.2   254  SER254      0.2288
     30  O         42.7650    3.7740   24.1530 O.2   254  SER254     -0.2866
     31  CB        45.7120    2.1850   23.9890 C.3   254  SER254      0.2089
     32  OG        46.3870    0.9440   24.0950 O.3   254  SER254     -0.2183
     33  N         43.6900    7.4070   24.3110 N.3   256  TYR256     -0.1241
     34  CA        44.3170    8.4060   23.4530 C.3   256  TYR256      0.1605
     35  C         43.9520    9.8530   23.8320 C.2   256  TYR256      0.2264
     36  O         44.7610   10.7870   23.5920 O.2   256  TYR256     -0.2867
     37  CB        43.9700    8.1430   21.9760 C.3   256  TYR256      0.0534
     38  CG        44.4800    6.8150   21.4840 C.ar  256  TYR256     -0.0201
     39  CD1       45.7270    6.7000   20.8980 C.ar  256  TYR256     -0.0009
     40  CD2       43.7150    5.6670   21.6320 C.ar  256  TYR256     -0.0009
     41  CE1       46.2210    5.4710   20.4920 C.ar  256  TYR256      0.0417
     42  CE2       44.1880    4.4430   21.2330 C.ar  256  TYR256      0.0417
     43  CZ        45.4390    4.3390   20.6500 C.ar  256  TYR256      0.1957
     44  OH        45.9660    3.1160   20.2770 O.3   256  TYR256     -0.2866
     45  N         52.3680    9.9830   25.8180 N.3   300  PRO300     -0.2103
     46  CA        51.7890    9.0970   24.7890 C.3   300  PRO300      0.1489
     47  C         50.5810    8.3620   25.3560 C.2   300  PRO300      0.2418
     48  O         50.3170    8.4690   26.5570 O.2   300  PRO300     -0.2734
     49  CB        52.9080    8.0990   24.5250 C.3   300  PRO300      0.0282
     50  CG        53.5770    7.9600   25.8690 C.3   300  PRO300      0.0208
     51  CD        53.4620    9.3060   26.5450 C.3   300  PRO300      0.0893
     52  N         49.8500    7.6440   24.4950 N.am  301  PRO301     -0.2718
     53  CA        48.6400    6.9740   24.9840 C.3   301  PRO301      0.1535
     54  C         48.9140    5.9640   26.0930 C.2   301  PRO301      0.2599
     55  O         50.0130    5.3900   26.1630 O.2   301  PRO301     -0.2715
     56  CB        48.1040    6.2570   23.7450 C.3   301  PRO301      0.0310
     57  CG        48.6550    7.0020   22.5930 C.3   301  PRO301      0.0237
     58  CD        50.0000    7.4920   23.0540 C.3   301  PRO301      0.0939
     59  N         47.9310    5.7370   26.9510 N.am  302  THR302     -0.1938
     60  CA        48.0620    4.7650   28.0040 C.3   302  THR302      0.2013
     61  C         47.6190    3.4250   27.4900 C.2   302  THR302      0.2484
     62  O         46.5020    3.2680   27.0500 O.2   302  THR302     -0.2729
     63  CB        47.2290    5.1390   29.2100 C.3   302  THR302      0.1807
     64  OG1       47.5530    6.4820   29.5980 O.3   302  THR302     -0.2208
     65  CG2       47.4490    4.1840   30.3750 C.3   302  THR302      0.0379
     66  N         48.5280    2.4510   27.4810 N.am  303  PRO303     -0.2715
     67  CA        48.1150    1.1170   27.0580 C.3   303  PRO303      0.1536
     68  C         46.9440    0.5770   27.8720 C.2   303  PRO303      0.2598
     69  O         46.7680    0.9260   29.0450 O.2   303  PRO303     -0.2715
     70  CB        49.3850    0.2680   27.2850 C.3   303  PRO303      0.0310
     71  CG        50.4880    1.2520   27.1720 C.3   303  PRO303      0.0237
     72  CD        49.9740    2.5030   27.8070 C.3   303  PRO303      0.0939
     73  N         46.1330   -0.2440   27.2040 N.am  304  ALA304     -0.1978
     74  CA        44.9260   -0.8280   27.7740 C.3   304  ALA304      0.1597
     75  C         45.0780   -1.0780   29.2760 C.2   304  ALA304      0.2287
     76  O         45.9400   -1.8310   29.6900 O.2   304  ALA304     -0.2864
     77  CB        44.6070   -2.1050   27.0510 C.3   304  ALA304      0.0319
@<TRIPOS>BOND
     1     8     7    2
     2    25    24    1
     3     7     6    1
     4     7     9   am
     5     5     6    1
     6     5     2    1
     7     3     2    1
     8     3     4    2
     9    24    23    1
    10    24    26    1
    11    23    20    1
    12     1     2    1
    13    44    43    1
    14    41    43   ar
    15    41    39   ar
    16    43    42   ar
    17    20    21    1
    18    20    19    1
    19    21    22    2
    20    39    38   ar
    21    42    40   ar
    22    19    12   am
    23    38    40   ar
    24    38    37    1
    25    10    11    1
    26    37    34    1
    27    12    11    1
    28    12    13    2
    29    57    58    1
    30    57    56    1
    31    11    14    1
    32    58    52    1
    33    17    16    2
    34    14    15    1
    35    34    35    1
    36    34    33    1
    37    36    35    2
    38    56    53    1
    39    31    32    1
    40    31    28    1
    41    15    16    1
    42    30    29    2
    43    27    28    1
    44    16    18   am
    45    52    53    1
    46    52    47   am
    47    49    46    1
    48    49    50    1
    49    46    47    1
    50    46    45    1
    51    28    29    1
    52    53    54    1
    53    47    48    2
    54    45    51    1
    55    50    51    1
    56    54    55    2
    57    54    59   am
    58    59    60    1
    59    62    61    2
    60    77    74    1
    61    67    70    1
    62    67    66    1
    63    67    68    1
    64    71    70    1
    65    71    72    1
    66    73    74    1
    67    73    68   am
    68    66    61   am
    69    66    72    1
    70    61    60    1
    71    74    75    1
    72    68    69    2
    73    60    63    1
    74    63    64    1
    75    63    65    1
    76    75    76    2
