@<TRIPOS>MOLECULE
tmp/2hduA02.pdb
 76 69 0 0 0
SMALL
GASTEIGER

@<TRIPOS>ATOM
      1  N         26.3250    1.4980   16.0120 N.3    61  SER61      -0.1217
      2  CA        27.6450    1.9940   16.3070 C.3    61  SER61       0.1889
      3  C         28.5290    1.0720   17.1550 C.2    61  SER61       0.2288
      4  O         29.7160    1.3330   17.3040 O.2    61  SER61      -0.2866
      5  CB        27.5610    3.3540   16.9560 C.3    61  SER61       0.2089
      6  OG        27.0230    4.2320   15.9960 O.3    61  SER61      -0.2183
      7  N         30.3470    9.4660   12.5000 N.3   149  ASN149     -0.1240
      8  CA        30.4700    8.3830   11.5720 C.3   149  ASN149      0.1653
      9  C         31.3960    8.7250   10.4190 C.2   149  ASN149      0.2266
     10  O         32.0960    7.8600    9.8960 O.2   149  ASN149     -0.2867
     11  CB        29.1210    7.9900   10.9850 C.3   149  ASN149      0.1155
     12  CG        28.1720    7.4600   11.9980 C.2   149  ASN149      0.2627
     13  OD1       28.5840    6.8770   12.9750 O.2   149  ASN149     -0.2716
     14  ND2       26.8690    7.5720   11.7230 N.am  149  ASN149     -0.0877
     15  N         10.5510    0.7550   14.7030 N.3   201  ARG201     -0.1245
     16  CA        10.5500    2.1890   14.9140 C.3   201  ARG201      0.1563
     17  C          9.1670    2.7350   14.6110 C.2   201  ARG201      0.2260
     18  O          8.6400    2.5890   13.5020 O.2   201  ARG201     -0.2867
     19  CB        11.5660    2.8750   14.0300 C.3   201  ARG201      0.0307
     20  CG        11.6930    4.3670   14.3130 C.3   201  ARG201      0.0489
     21  CD        12.5080    5.0560   13.2550 C.3   201  ARG201      0.2205
     22  NE        12.5780    6.4940   13.4960 N.pl3 201  ARG201     -0.0865
     23  CZ        11.7350    7.3990   12.9920 C.cat 201  ARG201      0.5346
     24  NH1       10.7310    7.0450   12.1850 N.pl3 201  ARG201      0.1354
     25  NH2       11.9070    8.6830   13.2920 N.pl3 201  ARG201      0.1354
     26  N         18.3300   -1.3290    8.5900 N.3   208  VAL208     -0.1245
     27  CA        19.2310   -0.2120    8.2540 C.3   208  VAL208      0.1561
     28  C         19.3390   -0.0580    6.7400 C.2   208  VAL208      0.2260
     29  O         19.4340   -1.0260    5.9880 O.2   208  VAL208     -0.2867
     30  CB        20.5880   -0.3930    8.9360 C.3   208  VAL208      0.0252
     31  CG1       21.3260   -1.6270    8.3770 C.3   208  VAL208      0.0019
     32  CG2       21.4070    0.9010    8.8890 C.3   208  VAL208      0.0019
     33  N         28.6900    1.6730   11.1920 N.3   218  TYR218     -0.1241
     34  CA        27.4590    1.2110   11.8430 C.3   218  TYR218      0.1605
     35  C         26.8420   -0.0460   11.2560 C.2   218  TYR218      0.2264
     36  O         25.6990   -0.3430   11.5830 O.2   218  TYR218     -0.2867
     37  CB        26.3820    2.3180   11.9250 C.3   218  TYR218      0.0534
     38  CG        26.0120    2.9490   10.5950 C.ar  218  TYR218     -0.0201
     39  CD1       25.0460    2.3730    9.7720 C.ar  218  TYR218     -0.0009
     40  CD2       26.5710    4.1550   10.1840 C.ar  218  TYR218     -0.0009
     41  CE1       24.7250    2.9250    8.5690 C.ar  218  TYR218      0.0417
     42  CE2       26.2210    4.7250    8.9790 C.ar  218  TYR218      0.0417
     43  CZ        25.3110    4.1050    8.1690 C.ar  218  TYR218      0.1957
     44  OH        24.9330    4.6950    6.9840 O.3   218  TYR218     -0.2866
     45  N         22.9060   11.4530   24.0160 N.3   286  ASN286     -0.1296
     46  CA        22.5050   10.9980   22.6410 C.3   286  ASN286      0.1339
     47  C         21.0840   10.9130   22.1090 C.3   286  ASN286      0.2014
     48  O         21.0020   10.5260   20.9320 O.3   286  ASN286     -0.2188
     49  CB        23.1260    9.5710   22.3230 C.3   286  ASN286      0.1102
     50  CG        24.6070    9.6220   22.1050 C.2   286  ASN286      0.2623
     51  OD1       25.1850   10.7290   22.1330 O.2   286  ASN286     -0.2716
     52  ND2       25.2620    8.4400   21.8640 N.am  286  ASN286     -0.0877
     53  N         23.2210    2.1900   17.9220 N.3   315  ALA315     -0.1231
     54  CA        21.8590    2.1540   17.4420 C.3   315  ALA315      0.1694
     55  C         21.7890    2.2330   15.9580 C.2   315  ALA315      0.2593
     56  O         22.6860    2.7440   15.2890 O.2   315  ALA315     -0.2718
     57  CB        21.0430    3.2940   18.0180 C.3   315  ALA315      0.0304
     58  N         20.6630    1.7410   15.4640 N.am  316  THR316     -0.1939
     59  CA        20.1830    2.1140   14.1500 C.3   316  THR316      0.2028
     60  C         18.7320    2.6030   14.3150 C.2   316  THR316      0.2642
     61  O         18.2270    2.6610   15.4190 O.2   316  THR316     -0.2714
     62  CB        20.2390    0.8900   13.1910 C.3   316  THR316      0.1808
     63  OG1       19.3900   -0.1330   13.7070 O.3   316  THR316     -0.2208
     64  CG2       21.6420    0.3620   12.9710 C.3   316  THR316      0.0379
     65  N         18.0060    2.8770   13.2390 N.am  317  GLY317     -0.1954
     66  CA        16.6640    3.3430   13.4080 C.3   317  GLY317      0.1869
     67  C         15.8070    2.3810   14.1970 C.2   317  GLY317      0.2309
     68  O         14.9190    2.7950   14.9250 O.2   317  GLY317     -0.2863
     69  N         15.3370    1.0190   19.2590 N.3   340  ASN340     -0.1240
     70  CA        16.3020    2.0330   19.6880 C.3   340  ASN340      0.1653
     71  C         15.7590    2.8100   20.8910 C.2   340  ASN340      0.2266
     72  O         15.0710    3.8060   20.7210 O.2   340  ASN340     -0.2867
     73  CB        16.6160    2.9810   18.5170 C.3   340  ASN340      0.1155
     74  CG        17.5980    4.0590   18.8830 C.2   340  ASN340      0.2627
     75  OD1       18.2380    4.0230   19.9340 O.2   340  ASN340     -0.2716
     76  ND2       17.7800    5.0020   17.9640 N.am  340  ASN340     -0.0877
@<TRIPOS>BOND
     1    29    28    2
     2    28    27    1
     3    44    43    1
     4    43    41   ar
     5    43    42   ar
     6    27    26    1
     7    27    30    1
     8    31    30    1
     9    41    39   ar
    10    32    30    1
    11    42    40   ar
    12    39    38   ar
    13    10     9    2
    14    40    38   ar
    15     9     8    1
    16    38    37    1
    17    11     8    1
    18    11    12    1
    19    33    34    1
    20    35    36    2
    21    35    34    1
    22     8     7    1
    23    14    12   am
    24    34    37    1
    25    12    13    2
    26    24    23    1
    27    64    62    1
    28    23    25    1
    29    23    22    2
    30    62    63    1
    31    62    59    1
    32    65    66    1
    33    65    60   am
    34    21    22    1
    35    21    20    1
    36    66    67    1
    37    18    17    2
    38    19    20    1
    39    19    16    1
    40    59    60    1
    41    59    58    1
    42    67    68    2
    43    60    61    2
    44    17    16    1
    45    15    16    1
    46    56    55    2
    47    58    55   am
    48    55    54    1
    49     6     5    1
    50     1     2    1
    51     2     5    1
    52     2     3    1
    53     3     4    2
    54    54    53    1
    55    54    57    1
    56    76    74   am
    57    73    74    1
    58    73    70    1
    59    74    75    2
    60    69    70    1
    61    70    71    1
    62    72    71    2
    63    48    47    1
    64    52    50   am
    65    50    51    2
    66    50    49    1
    67    47    46    1
    68    49    46    1
    69    46    45    1
