@<TRIPOS>MOLECULE
tmp/2hduB00.pdb
 118 110 0 0 0
SMALL
GASTEIGER

@<TRIPOS>ATOM
      1  N         75.9720    0.9020   29.4040 N.3    61  SER61      -0.1217
      2  CA        74.6680    1.4340   28.9700 C.3    61  SER61       0.1889
      3  C         73.7500    0.4270   28.2630 C.2    61  SER61       0.2288
      4  O         72.5770    0.7440   28.0500 O.2    61  SER61      -0.2866
      5  CB        74.8360    2.6980   28.1390 C.3    61  SER61       0.2089
      6  OG        75.4600    3.6870   28.9390 O.3    61  SER61      -0.2183
      7  N         74.6630   14.3430   30.5640 N.3   116  LEU116     -0.1231
      8  CA        75.1110   12.9960   30.3000 C.3   116  LEU116      0.1693
      9  C         75.3090   12.2650   31.6140 C.2   116  LEU116      0.2591
     10  O         74.8530   11.1500   31.7680 O.2   116  LEU116     -0.2718
     11  CB        76.4030   12.9960   29.4640 C.3   116  LEU116      0.0284
     12  CG        77.0570   11.6250   29.2700 C.3   116  LEU116      0.0019
     13  CD1       76.0900   10.7290   28.4330 C.3   116  LEU116      0.0001
     14  CD2       78.3810   11.7850   28.5960 C.3   116  LEU116      0.0001
     15  N         76.0370   12.8790   32.5520 N.am  117  GLN117     -0.1979
     16  CA        76.2950   12.2770   33.8460 C.3   117  GLN117      0.1601
     17  C         75.6450   13.0720   34.9700 C.2   117  GLN117      0.2287
     18  O         75.6050   14.3190   34.9150 O.2   117  GLN117     -0.2864
     19  CB        77.8070   12.2300   34.1360 C.3   117  GLN117      0.0394
     20  CG        78.6470   11.5650   33.0860 C.3   117  GLN117      0.0908
     21  CD        78.4590   10.0790   32.9790 C.2   117  GLN117      0.2608
     22  OE1       77.6930    9.4340   33.7210 O.2   117  GLN117     -0.2717
     23  NE2       79.1520    9.5050   32.0020 N.am  117  GLN117     -0.0878
     24  N         71.4180   12.2930   24.8760 N.3   147  TYR147     -0.1241
     25  CA        71.6230   11.0440   25.5790 C.3   147  TYR147      0.1605
     26  C         72.1530   11.3540   26.9820 C.2   147  TYR147      0.2264
     27  O         73.0900   12.1490   27.1330 O.2   147  TYR147     -0.2867
     28  CB        72.6230   10.2180   24.8210 C.3   147  TYR147      0.0534
     29  CG        72.8400    8.8320   25.3760 C.ar  147  TYR147     -0.0201
     30  CD1       73.8980    8.5630   26.2400 C.ar  147  TYR147     -0.0009
     31  CD2       71.9800    7.7790   25.0420 C.ar  147  TYR147     -0.0009
     32  CE1       74.1280    7.3000   26.7040 C.ar  147  TYR147      0.0417
     33  CE2       72.1860    6.5040   25.5070 C.ar  147  TYR147      0.0417
     34  CZ        73.2620    6.2610   26.3680 C.ar  147  TYR147      0.1957
     35  OH        73.4530    5.0060   26.8310 O.3   147  TYR147     -0.2866
     36  N         72.5340    9.6780   31.1510 N.3   149  ASN149     -0.1240
     37  CA        72.3540    8.8510   32.3130 C.3   149  ASN149      0.1653
     38  C         71.3980    9.4600   33.3410 C.2   149  ASN149      0.2266
     39  O         70.6170    8.7510   34.0270 O.2   149  ASN149     -0.2867
     40  CB        73.7020    8.5140   32.9640 C.3   149  ASN149      0.1155
     41  CG        74.5800    7.6540   32.0780 C.2   149  ASN149      0.2627
     42  OD1       74.0630    6.8360   31.2960 O.2   149  ASN149     -0.2716
     43  ND2       75.9180    7.7740   32.2520 N.am  149  ASN149     -0.0877
     44  N         83.6080   -1.0850   37.4690 N.3   208  VAL208     -0.1245
     45  CA        82.8550    0.1640   37.4770 C.3   208  VAL208      0.1561
     46  C         82.7110    0.6920   38.9110 C.2   208  VAL208      0.2260
     47  O         82.4650   -0.0790   39.8380 O.2   208  VAL208     -0.2867
     48  CB        81.4610   -0.0210   36.8100 C.3   208  VAL208      0.0252
     49  CG1       80.5660   -0.9560   37.5940 C.3   208  VAL208      0.0019
     50  CG2       80.7870    1.3430   36.5680 C.3   208  VAL208      0.0019
     51  N         73.4970    2.1900   33.9730 N.3   218  TYR218     -0.1241
     52  CA        74.6470    1.4740   33.4190 C.3   218  TYR218      0.1605
     53  C         75.1810    0.3210   34.2760 C.2   218  TYR218      0.2264
     54  O         76.3040   -0.1140   34.0660 O.2   218  TYR218     -0.2867
     55  CB        75.8040    2.4630   33.1240 C.3   218  TYR218      0.0534
     56  CG        76.2530    3.3100   34.3200 C.ar  218  TYR218     -0.0201
     57  CD1       77.1400    2.8290   35.2630 C.ar  218  TYR218     -0.0009
     58  CD2       75.8280    4.6320   34.4500 C.ar  218  TYR218     -0.0009
     59  CE1       77.5460    3.6200   36.3180 C.ar  218  TYR218      0.0417
     60  CE2       76.2130    5.4190   35.4950 C.ar  218  TYR218      0.0417
     61  CZ        77.0960    4.9260   36.4180 C.ar  218  TYR218      0.1957
     62  OH        77.5050    5.6950   37.4930 O.3   218  TYR218     -0.2866
     63  N         80.5870    8.4920   19.4380 N.3   286  ASN286     -0.1240
     64  CA        80.1280    9.3980   20.4850 C.3   286  ASN286      0.1653
     65  C         80.0140   10.8410   20.0850 C.2   286  ASN286      0.2266
     66  O         79.1790   11.5590   20.6330 O.2   286  ASN286     -0.2867
     67  CB        80.9550    9.2390   21.7470 C.3   286  ASN286      0.1155
     68  CG        80.5860    7.9800   22.5090 C.2   286  ASN286      0.2627
     69  OD1       79.4600    7.4750   22.3570 O.2   286  ASN286     -0.2716
     70  ND2       81.4860    7.4950   23.3450 N.am  286  ASN286     -0.0877
     71  N         76.2980   11.2810   21.3620 N.3   290  LEU290     -0.1245
     72  CA        76.1430   12.0520   22.5910 C.3   290  LEU290      0.1561
     73  C         75.8010   13.5140   22.3460 C.2   290  LEU290      0.2260
     74  O         75.6560   14.2850   23.2930 O.2   290  LEU290     -0.2867
     75  CB        77.4240   11.9570   23.4350 C.3   290  LEU290      0.0270
     76  CG        77.9020   10.5420   23.8160 C.3   290  LEU290      0.0019
     77  CD1       79.1760   10.5620   24.6860 C.3   290  LEU290      0.0001
     78  CD2       76.7530    9.7700   24.5230 C.3   290  LEU290      0.0001
     79  N         71.6880   -1.4390   20.8580 N.3   312  LYS312     -0.1231
     80  CA        72.2090   -0.5770   21.9420 C.3   312  LYS312      0.1693
     81  C         73.7000   -0.8590   22.1520 C.2   312  LYS312      0.2593
     82  O         74.0950   -2.0120   22.3190 O.2   312  LYS312     -0.2718
     83  CB        71.4630   -0.7990   23.2630 C.3   312  LYS312      0.0285
     84  CG        71.8300    0.1810   24.3580 C.3   312  LYS312      0.0035
     85  CD        71.2800    1.5760   24.0460 C.3   312  LYS312      0.0206
     86  CE        71.6820    2.6070   25.0810 C.3   312  LYS312      0.1093
     87  NZ        73.0870    3.1280   24.9480 N.3   312  LYS312     -0.1314
     88  N         74.4900    0.2190   22.1610 N.am  313  THR313     -0.1939
     89  CA        75.8800    0.1780   22.6300 C.3   313  THR313      0.2028
     90  C         75.9510    0.4200   24.1280 C.2   313  THR313      0.2643
     91  O         75.0950    1.0820   24.7080 O.2   313  THR313     -0.2714
     92  CB        76.7010    1.2680   21.9170 C.3   313  THR313      0.1808
     93  OG1       76.1060    2.5580   22.1330 O.3   313  THR313     -0.2208
     94  CG2       76.8440    1.0040   20.4560 C.3   313  THR313      0.0379
     95  N         77.0160   -0.0520   24.7630 N.am  314  GLY314     -0.1939
     96  CA        77.2450    0.3330   26.1460 C.3   314  GLY314      0.2014
     97  C         78.6730    0.0690   26.5790 C.2   314  GLY314      0.2639
     98  O         79.3030   -0.8640   26.1110 O.2   314  GLY314     -0.2714
     99  N         79.1470    0.8910   27.5120 N.am  315  ALA315     -0.1963
    100  CA        80.5120    0.8290   27.9980 C.3   315  ALA315      0.1728
    101  C         80.5690    1.2270   29.4480 C.2   315  ALA315      0.2616
    102  O         79.7080    1.9260   29.9620 O.2   315  ALA315     -0.2715
    103  CB        81.4330    1.7030   27.1760 C.3   315  ALA315      0.0334
    104  N         81.6320    0.7530   30.0760 N.am  316  THR316     -0.1951
    105  CA        82.1390    1.2990   31.3380 C.3   316  THR316      0.1897
    106  C         83.6190    1.5870   31.1090 C.2   316  THR316      0.2313
    107  O         84.1640    1.3670   30.0230 O.2   316  THR316     -0.2863
    108  CB        81.9680    0.3430   32.5140 C.3   316  THR316      0.1794
    109  OG1       82.6730   -0.8630   32.2200 O.3   316  THR316     -0.2208
    110  CG2       80.4930    0.0170   32.7770 C.3   316  THR316      0.0378
    111  N         82.9200    2.4230   19.6330 N.3   343  ASN343     -0.1240
    112  CA        81.6020    1.9780   19.1980 C.3   343  ASN343      0.1653
    113  C         81.5340    1.6040   17.7180 C.2   343  ASN343      0.2266
    114  O         80.9840    0.5460   17.3740 O.2   343  ASN343     -0.2867
    115  CB        80.5510    3.0620   19.4720 C.3   343  ASN343      0.1155
    116  CG        80.2620    3.2560   20.9530 C.2   343  ASN343      0.2627
    117  OD1       80.3260    2.3190   21.7380 O.2   343  ASN343     -0.2716
    118  ND2       79.9610    4.4990   21.3320 N.am  343  ASN343     -0.0877
@<TRIPOS>BOND
     1   114   113    2
     2   113   112    1
     3   112   115    1
     4   112   111    1
     5    63    64    1
     6   115   116    1
     7    65    64    1
     8    65    66    2
     9    94    92    1
    10    64    67    1
    11    79    80    1
    12   116   118   am
    13   116   117    2
    14    71    72    1
    15    67    68    1
    16    92    93    1
    17    92    89    1
    18    80    81    1
    19    80    83    1
    20    81    88   am
    21    81    82    2
    22    88    89    1
    23    73    72    1
    24    73    74    2
    25    69    68    2
    26    68    70   am
    27    72    75    1
    28    89    90    1
    29    83    84    1
    30    75    76    1
    31    76    78    1
    32    76    77    1
    33    85    84    1
    34    85    86    1
    35    90    91    2
    36    90    95   am
    37    95    96    1
    38    28    29    1
    39    28    25    1
    40    24    25    1
    41    87    86    1
    42    31    29   ar
    43    31    33   ar
    44    29    30   ar
    45    33    34   ar
    46    25    26    1
    47    98    97    2
    48    96    97    1
    49    30    32   ar
    50    34    32   ar
    51    34    35    1
    52    97    99   am
    53    26    27    2
    54   103   100    1
    55    99   100    1
    56   100   101    1
    57     4     3    2
    58     5     6    1
    59     5     2    1
    60     3     2    1
    61    13    12    1
    62    14    12    1
    63     2     1    1
    64    12    11    1
    65   101   102    2
    66   101   104   am
    67    11     8    1
    68   107   106    2
    69   104   105    1
    70     8     7    1
    71     8     9    1
    72   106   105    1
    73    36    37    1
    74    42    41    2
    75   105   108    1
    76     9    10    2
    77     9    15   am
    78    23    21   am
    79    41    43   am
    80    41    40    1
    81   109   108    1
    82    37    40    1
    83    37    38    1
    84   108   110    1
    85    15    16    1
    86    21    20    1
    87    21    22    2
    88    20    19    1
    89    55    52    1
    90    55    56    1
    91    38    39    2
    92    52    51    1
    93    52    53    1
    94    16    19    1
    95    16    17    1
    96    54    53    2
    97    56    58   ar
    98    56    57   ar
    99    58    60   ar
   100    18    17    2
   101    57    59   ar
   102    60    61   ar
   103    59    61   ar
   104    61    62    1
   105    50    48    1
   106    48    45    1
   107    48    49    1
   108    44    45    1
   109    45    46    1
   110    46    47    2
