@<TRIPOS>MOLECULE
tmp/2heiA01.pdb
 115 113 0 0 0
SMALL
GASTEIGER

@<TRIPOS>ATOM
      1  N         23.3680   30.8820    4.4510 N.3     9  LEU9       -0.1245
      2  CA        23.0410   30.0650    3.2580 C.3     9  LEU9        0.1561
      3  C         22.5200   28.6990    3.6630 C.2     9  LEU9        0.2260
      4  O         22.6990   28.2660    4.7840 O.2     9  LEU9       -0.2867
      5  CB        24.2770   29.8800    2.3730 C.3     9  LEU9        0.0270
      6  CG        24.9520   31.1260    1.8660 C.3     9  LEU9        0.0019
      7  CD1       26.3320   30.8230    1.2360 C.3     9  LEU9        0.0001
      8  CD2       24.0380   31.8540    0.8140 C.3     9  LEU9        0.0001
      9  N         19.0980   34.5580    3.4390 N.3    56  THR56      -0.1218
     10  CA        18.7950   34.2440    2.0050 C.3    56  THR56       0.1862
     11  C         17.5050   33.4090    1.8530 C.2    56  THR56       0.2287
     12  O         17.1960   32.9310    0.7540 O.2    56  THR56      -0.2866
     13  CB        19.9810   33.4850    1.3370 C.3    56  THR56       0.1770
     14  OG1       20.2020   32.2390    2.0140 O.3    56  THR56      -0.2211
     15  CG2       21.2320   34.3200    1.3430 C.3    56  THR56       0.0375
     16  N         15.2160   33.2880   -1.2550 N.3    59  GLN59      -0.1231
     17  CA        16.0720   33.6700   -2.3680 C.3    59  GLN59       0.1698
     18  C         17.0090   32.5240   -2.7670 C.2    59  GLN59       0.2592
     19  O         17.8720   32.7230   -3.6150 O.2    59  GLN59      -0.2718
     20  CB        16.9250   34.8930   -2.0140 C.3    59  GLN59       0.0381
     21  CG        16.1430   36.0850   -1.4620 C.3    59  GLN59       0.0905
     22  CD        15.1660   36.6670   -2.4650 C.2    59  GLN59       0.2608
     23  OE1       15.4240   36.6500   -3.6680 O.2    59  GLN59      -0.2717
     24  NE2       14.0490   37.2320   -1.9650 N.am   59  GLN59      -0.0878
     25  N         16.8460   31.3530   -2.1370 N.am   60  GLU60      -0.1979
     26  CA        17.8080   30.2520   -2.2580 C.3    60  GLU60       0.1602
     27  C         18.0470   29.8460   -3.7330 C.2    60  GLU60       0.2287
     28  O         19.1680   29.4760   -4.1050 O.2    60  GLU60      -0.2864
     29  CB        17.3520   29.0280   -1.4680 C.3    60  GLU60       0.0415
     30  CG        17.2960   29.2270    0.0350 C.3    60  GLU60       0.1163
     31  CD        15.9490   29.6010    0.5830 C.2    60  GLU60       0.3649
     32  OE1       15.0910   30.0620   -0.1850 O.co2  60  GLU60      -0.2457
     33  OE2       15.7120   29.4380    1.8110 O.co2  60  GLU60      -0.2457
     34  N         18.2020   31.5490   -6.3610 N.3    62  TYR62      -0.1227
     35  CA        18.7780   32.5690   -7.2410 C.3    62  TYR62       0.1736
     36  C         20.2800   32.7870   -7.0330 C.2    62  TYR62       0.2595
     37  O         20.7090   33.7710   -6.4610 O.2    62  TYR62      -0.2718
     38  CB        17.9890   33.8820   -7.1060 C.3    62  TYR62       0.0548
     39  CG        16.5170   33.6490   -7.3940 C.ar   62  TYR62      -0.0200
     40  CD1       16.0650   33.4670   -8.6950 C.ar   62  TYR62      -0.0009
     41  CD2       15.5860   33.5740   -6.3520 C.ar   62  TYR62      -0.0009
     42  CE1       14.7050   33.2290   -8.9570 C.ar   62  TYR62       0.0417
     43  CE2       14.2230   33.3090   -6.5820 C.ar   62  TYR62       0.0417
     44  CZ        13.7810   33.1520   -7.8950 C.ar   62  TYR62       0.1957
     45  OH        12.4650   32.9390   -8.1110 O.3    62  TYR62      -0.2866
     46  N         21.0880   31.8610   -7.5300 N.am   63  HIS63      -0.1975
     47  CA        22.5190   31.9240   -7.3030 C.3    63  HIS63       0.1656
     48  C         23.2030   33.1460   -7.9590 C.2    63  HIS63       0.2291
     49  O         24.2570   33.5750   -7.5210 O.2    63  HIS63      -0.2864
     50  CB        23.1860   30.5870   -7.7240 C.3    63  HIS63       0.0771
     51  CG        22.5770   29.3870   -7.0650 C.ar   63  HIS63       0.0820
     52  ND1       22.8720   29.0180   -5.7700 N.ar   63  HIS63      -0.2267
     53  CD2       21.6590   28.4930   -7.5080 C.ar   63  HIS63       0.1154
     54  CE1       22.1750   27.9380   -5.4500 C.ar   63  HIS63       0.1986
     55  NE2       21.4290   27.6010   -6.4830 N.ar   63  HIS63      -0.2212
     56  N         22.2810   36.0340   -7.5070 N.3    65  LEU65      -0.1231
     57  CA        22.2780   37.0670   -6.4720 C.3    65  LEU65       0.1693
     58  C         23.5880   37.0760   -5.6560 C.2    65  LEU65       0.2591
     59  O         23.8270   38.0070   -4.8710 O.2    65  LEU65      -0.2718
     60  CB        21.0900   36.8840   -5.5110 C.3    65  LEU65       0.0284
     61  CG        19.7350   37.2240   -6.0960 C.3    65  LEU65       0.0019
     62  CD1       18.6270   36.8700   -5.1140 C.3    65  LEU65       0.0001
     63  CD2       19.6970   38.6970   -6.4610 C.3    65  LEU65       0.0001
     64  N         24.3960   36.0250   -5.8030 N.am   66  ALA66      -0.1980
     65  CA        25.6570   35.8680   -5.0400 C.3    66  ALA66       0.1597
     66  C         26.5160   37.1270   -4.9710 C.2    66  ALA66       0.2287
     67  O         26.9190   37.5450   -3.8840 O.2    66  ALA66      -0.2864
     68  CB        26.4720   34.7170   -5.5950 C.3    66  ALA66       0.0319
     69  N         25.0580   39.5500   -2.4040 N.3    69  TYR69      -0.1227
     70  CA        25.0730   39.0420   -1.0100 C.3    69  TYR69       0.1736
     71  C         26.4830   38.8780   -0.4560 C.2    69  TYR69       0.2595
     72  O         26.7260   39.1670    0.7160 O.2    69  TYR69      -0.2718
     73  CB        24.3190   37.7020   -0.8980 C.3    69  TYR69       0.0548
     74  CG        22.8340   37.8960   -0.7360 C.ar   69  TYR69      -0.0200
     75  CD1       22.0520   38.2480   -1.8340 C.ar   69  TYR69      -0.0009
     76  CD2       22.2040   37.7800    0.5090 C.ar   69  TYR69      -0.0009
     77  CE1       20.7090   38.4720   -1.7230 C.ar   69  TYR69       0.0417
     78  CE2       20.7830   38.0140    0.6270 C.ar   69  TYR69       0.0417
     79  CZ        20.0660   38.3620   -0.5030 C.ar   69  TYR69       0.1957
     80  OH        18.7000   38.5990   -0.4340 O.3    69  TYR69      -0.2866
     81  N         27.4110   38.4350   -1.2880 N.am   70  TYR70      -0.1976
     82  CA        28.7640   38.1800   -0.8280 C.3    70  TYR70       0.1639
     83  C         29.6420   39.4140   -0.8080 C.2    70  TYR70       0.2290
     84  O         30.6290   39.4200   -0.1370 O.2    70  TYR70      -0.2864
     85  CB        29.4440   37.0910   -1.6520 C.3    70  TYR70       0.0560
     86  CG        28.7080   35.7690   -1.6670 C.ar   70  TYR70      -0.0198
     87  CD1       27.7020   35.4570   -0.6980 C.ar   70  TYR70      -0.0009
     88  CD2       29.0030   34.8130   -2.6180 C.ar   70  TYR70      -0.0009
     89  CE1       27.0210   34.2480   -0.7420 C.ar   70  TYR70       0.0417
     90  CE2       28.3300   33.5920   -2.6730 C.ar   70  TYR70       0.0417
     91  CZ        27.3390   33.3010   -1.7480 C.ar   70  TYR70       0.1957
     92  OH        26.6930   32.0720   -1.8070 O.3    70  TYR70      -0.2866
     93  N         26.9460   25.0060   -1.5050 N.3    94  TRP94      -0.1241
     94  CA        27.0980   26.4210   -1.1120 C.3    94  TRP94       0.1605
     95  C         28.4940   26.7310   -0.5390 C.2    94  TRP94       0.2264
     96  O         29.0410   27.8080   -0.7840 O.2    94  TRP94      -0.2867
     97  CB        26.0230   26.8190   -0.0880 C.3    94  TRP94       0.0550
     98  CG        24.7850   27.3610   -0.7290 C.ar   94  TRP94       0.0003
     99  CD1       24.6780   28.4810   -1.4790 C.ar   94  TRP94       0.0946
    100  CD2       23.4660   26.7520   -0.7230 C.ar   94  TRP94       0.0152
    101  NE1       23.3740   28.6140   -1.9470 N.ar   94  TRP94      -0.2442
    102  CE2       22.6180   27.5940   -1.4530 C.ar   94  TRP94       0.0810
    103  CE3       22.9250   25.5930   -0.1320 C.ar   94  TRP94       0.0012
    104  CZ2       21.2690   27.2970   -1.6610 C.ar   94  TRP94       0.0191
    105  CZ3       21.5460   25.3140   -0.3190 C.ar   94  TRP94       0.0001
    106  CH2       20.7590   26.1730   -1.0730 C.ar   94  TRP94       0.0015
    107  N         30.4220   27.2180   -3.5330 N.3    97  GLU97      -0.1245
    108  CA        30.1170   28.5150   -4.1150 C.3    97  GLU97       0.1567
    109  C         30.8160   29.6740   -3.3990 C.2    97  GLU97       0.2260
    110  O         31.3350   30.5890   -4.0370 O.2    97  GLU97      -0.2867
    111  CB        28.6090   28.7530   -4.1560 C.3    97  GLU97       0.0388
    112  CG        28.2050   30.0450   -4.8260 C.3    97  GLU97       0.1160
    113  CD        26.7190   30.2100   -4.8300 C.2    97  GLU97       0.3649
    114  OE1       26.0400   29.6870   -5.7450 O.co2  97  GLU97      -0.2457
    115  OE2       26.2080   30.8540   -3.8990 O.co2  97  GLU97      -0.2457
@<TRIPOS>BOND
     1    42    40   ar
     2    42    44   ar
     3    40    39   ar
     4    45    44    1
     5    48    49    2
     6    48    47    1
     7    44    43   ar
     8    50    47    1
     9    50    51    1
    10    46    47    1
    11    46    36   am
    12    53    51   ar
    13    53    55   ar
    14    56    57    1
    15    39    38    1
    16    39    41   ar
    17    35    38    1
    18    35    36    1
    19    35    34    1
    20    51    52   ar
    21    36    37    2
    22    43    41   ar
    23    55    54   ar
    24    57    58    1
    25    57    60    1
    26    63    61    1
    27    61    60    1
    28    61    62    1
    29    64    58   am
    30    64    65    1
    31    52    54   ar
    32   114   113   ar
    33    58    59    2
    34    68    65    1
    35    65    66    1
    36    66    67    2
    37   113   112    1
    38   113   115   ar
    39   112   111    1
    40   111   108    1
    41   108   107    1
    42   108   109    1
    43    28    27    2
    44   110   109    2
    45    27    26    1
    46    23    22    2
    47    19    18    2
    48    18    17    1
    49    18    25   am
    50    90    88   ar
    51    90    91   ar
    52    88    86   ar
    53    22    24   am
    54    22    21    1
    55    69    70    1
    56    17    20    1
    57    17    16    1
    58    26    25    1
    59    26    29    1
    60    20    21    1
    61   101    99   ar
    62   101   102   ar
    63    75    77   ar
    64    75    74   ar
    65    92    91    1
    66    91    89   ar
    67    77    79   ar
    68    86    85    1
    69    86    87   ar
    70   104   102   ar
    71   104   106   ar
    72    85    82    1
    73    93    94    1
    74    99    98   ar
    75    29    30    1
    76   102   100   ar
    77    81    82    1
    78    81    71   am
    79    94    95    1
    80    94    97    1
    81   106   105   ar
    82    70    73    1
    83    70    71    1
    84    73    74    1
    85    82    83    1
    86    83    84    2
    87    96    95    2
    88    89    87   ar
    89    74    76   ar
    90    98   100   ar
    91    98    97    1
    92   100   103   ar
    93    79    80    1
    94    79    78   ar
    95    71    72    2
    96   105   103   ar
    97    32    31   ar
    98    30    31    1
    99    76    78   ar
   100    31    33   ar
   101    12    11    2
   102     8     6    1
   103     7     6    1
   104    13    15    1
   105    13    10    1
   106    13    14    1
   107    11    10    1
   108     6     5    1
   109    10     9    1
   110     5     2    1
   111     2     3    1
   112     2     1    1
   113     3     4    2
