@<TRIPOS>MOLECULE
tmp/2heiA00.pdb
 167 162 0 0 0
SMALL
GASTEIGER

@<TRIPOS>ATOM
      1  N         16.0400   25.8200    1.6210 N.3    12  SER12      -0.1202
      2  CA        14.8260   26.3030    2.2710 C.3    12  SER12       0.2020
      3  C         14.3520   25.2710    3.3320 C.2    12  SER12       0.2619
      4  O         14.3310   24.0730    3.0560 O.2    12  SER12      -0.2717
      5  CB        13.7350   26.5630    1.2100 C.3    12  SER12       0.2103
      6  OG        12.5330   27.0640    1.8250 O.3    12  SER12      -0.2182
      7  N         13.9720   25.7870    4.5190 N.am   13  ALA13      -0.1965
      8  CA        13.4270   25.0630    5.6750 C.3    13  ALA13       0.1728
      9  C         14.4610   24.4200    6.5930 C.2    13  ALA13       0.2616
     10  O         14.1070   23.7020    7.4830 O.2    13  ALA13      -0.2715
     11  CB        12.3940   24.0250    5.2490 C.3    13  ALA13       0.0334
     12  N         15.7500   24.6840    6.3780 N.am   14  VAL14      -0.1963
     13  CA        16.7500   24.1360    7.3030 C.3    14  VAL14       0.1727
     14  C         16.7960   24.8800    8.6320 C.2    14  VAL14       0.2617
     15  O         17.2200   24.3270    9.6300 O.2    14  VAL14      -0.2715
     16  CB        18.1750   24.1360    6.6900 C.3    14  VAL14       0.0290
     17  CG1       18.2350   23.1250    5.4800 C.3    14  VAL14       0.0023
     18  CG2       18.6190   25.5330    6.3080 C.3    14  VAL14       0.0023
     19  N         16.3520   26.1490    8.6140 N.am   15  GLY15      -0.1940
     20  CA        16.3360   26.9690    9.8590 C.3    15  GLY15       0.2014
     21  C         17.1660   28.2470    9.8400 C.2    15  GLY15       0.2639
     22  O         17.5270   28.7530   10.9120 O.2    15  GLY15      -0.2714
     23  N         17.4970   28.7600    8.6570 N.am   16  LYS16      -0.1963
     24  CA        18.3050   30.0090    8.5370 C.3    16  LYS16       0.1728
     25  C         17.6430   31.1410    9.2730 C.2    16  LYS16       0.2617
     26  O         18.2940   31.8210   10.0890 O.2    16  LYS16      -0.2715
     27  CB        18.4600   30.4300    7.0940 C.3    16  LYS16       0.0311
     28  CG        19.2610   29.4160    6.2300 C.3    16  LYS16       0.0038
     29  CD        19.3940   29.8930    4.8190 C.3    16  LYS16       0.0206
     30  CE        18.0430   29.9580    4.0230 C.3    16  LYS16       0.1093
     31  NZ        17.3140   28.6530    3.9900 N.3    16  LYS16      -0.1314
     32  N         16.3630   31.3420    8.9910 N.am   17  SER17      -0.1936
     33  CA        15.6340   32.4920    9.5770 C.3    17  SER17       0.2055
     34  C         15.5400   32.3100   11.0820 C.2    17  SER17       0.2643
     35  O         15.8300   33.2400   11.8250 O.2    17  SER17      -0.2714
     36  CB        14.2500   32.6270    8.9120 C.3    17  SER17       0.2130
     37  OG        14.4020   32.8070    7.5170 O.3    17  SER17      -0.2179
     38  N         15.1650   31.0980   11.5180 N.am   18  SER18      -0.1949
     39  CA        15.0460   30.7570   12.9190 C.3    18  SER18       0.1924
     40  C         16.3710   30.9980   13.6490 C.2    18  SER18       0.2314
     41  O         16.3800   31.4920   14.7690 O.2    18  SER18      -0.2863
     42  CB        14.5640   29.3140   13.0890 C.3    18  SER18       0.2116
     43  OG        13.2940   29.1530   12.4370 O.3    18  SER18      -0.2180
     44  N         12.3280   31.9400   19.8050 N.3    28  PHE28      -0.1227
     45  CA        11.8970   31.0270   18.7150 C.3    28  PHE28       0.1736
     46  C         10.3860   30.8610   18.7780 C.2    28  PHE28       0.2595
     47  O          9.8130   30.6410   19.8620 O.2    28  PHE28      -0.2718
     48  CB        12.5800   29.6680   18.8840 C.3    28  PHE28       0.0547
     49  CG        12.1120   28.5940   17.9300 C.ar   28  PHE28      -0.0202
     50  CD1       12.7290   28.4160   16.7190 C.ar   28  PHE28      -0.0042
     51  CD2       11.1300   27.6980   18.3010 C.ar   28  PHE28      -0.0042
     52  CE1       12.3380   27.4090   15.8610 C.ar   28  PHE28      -0.0003
     53  CE2       10.7440   26.6630   17.4190 C.ar   28  PHE28      -0.0003
     54  CZ        11.3430   26.5320   16.2220 C.ar   28  PHE28      -0.0000
     55  N          9.7390   30.9570   17.6130 N.am   29  HIS29      -0.1961
     56  CA         8.3110   30.5870   17.4710 C.3    29  HIS29       0.1787
     57  C          8.1470   29.6250   16.2970 C.2    29  HIS29       0.2620
     58  O          8.4860   29.9550   15.1790 O.2    29  HIS29      -0.2715
     59  CB         7.4710   31.8400   17.2500 C.3    29  HIS29       0.0785
     60  CG         7.7110   32.9060   18.2660 C.ar   29  HIS29       0.0821
     61  ND1        8.6130   33.9310   18.0720 N.ar   29  HIS29      -0.2267
     62  CD2        7.1790   33.1000   19.4960 C.ar   29  HIS29       0.1154
     63  CE1        8.6200   34.7150   19.1340 C.ar   29  HIS29       0.1986
     64  NE2        7.7590   34.2320   20.0130 N.ar   29  HIS29      -0.2212
     65  N          7.6560   28.4190   16.5620 N.am   30  GLU30      -0.1963
     66  CA         7.6550   27.3930   15.5280 C.3    30  GLU30       0.1733
     67  C          6.6050   27.7260   14.4400 C.2    30  GLU30       0.2616
     68  O          5.5960   28.3960   14.7050 O.2    30  GLU30      -0.2715
     69  CB         7.4380   25.9910   16.1150 C.3    30  GLU30       0.0429
     70  CG         7.8220   24.8730   15.1260 C.3    30  GLU30       0.1163
     71  CD         8.2210   23.5510   15.7730 C.2    30  GLU30       0.3649
     72  OE1        8.2840   23.4460   17.0170 O.co2  30  GLU30      -0.2457
     73  OE2        8.4930   22.6160   15.0090 O.co2  30  GLU30      -0.2457
     74  N          6.8810   27.2810   13.2210 N.am   31  TYR31      -0.1960
     75  CA         5.9600   27.4560   12.0800 C.3    31  TYR31       0.1771
     76  C          5.6930   28.9260   11.6790 C.2    31  TYR31       0.2619
     77  O          4.7040   29.2040   10.9990 O.2    31  TYR31      -0.2715
     78  CB         4.6100   26.7460   12.3490 C.3    31  TYR31       0.0574
     79  CG         4.7260   25.3810   12.9980 C.ar   31  TYR31      -0.0198
     80  CD1        4.2820   25.1700   14.3010 C.ar   31  TYR31      -0.0009
     81  CD2        5.2600   24.3050   12.3050 C.ar   31  TYR31      -0.0009
     82  CE1        4.3780   23.9210   14.9030 C.ar   31  TYR31       0.0417
     83  CE2        5.3600   23.0490   12.8950 C.ar   31  TYR31       0.0417
     84  CZ         4.9170   22.8610   14.1940 C.ar   31  TYR31       0.1957
     85  OH         5.0230   21.6180   14.7810 O.3    31  TYR31      -0.2866
     86  N          6.5690   29.8520   12.0830 N.am   32  GLN32      -0.1977
     87  CA         6.5180   31.2360   11.5880 C.3    32  GLN32       0.1601
     88  C          6.9140   31.2890   10.1180 C.2    32  GLN32       0.2287
     89  O          7.5590   30.3840    9.5980 O.2    32  GLN32      -0.2864
     90  CB         7.4520   32.1670   12.3930 C.3    32  GLN32       0.0394
     91  CG         6.7990   32.8110   13.6290 C.3    32  GLN32       0.0908
     92  CD         7.5440   34.0780   14.1190 C.2    32  GLN32       0.2608
     93  OE1        8.7110   34.3270   13.7590 O.2    32  GLN32      -0.2717
     94  NE2        6.8580   34.8820   14.9360 N.am   32  GLN32      -0.0878
     95  N          8.9440   31.9010    6.9330 N.3    34  SER34      -0.1217
     96  CA        10.4060   31.7010    6.7760 C.3    34  SER34       0.1889
     97  C         11.1230   32.9540    6.2640 C.2    34  SER34       0.2288
     98  O         11.4940   33.0580    5.0910 O.2    34  SER34      -0.2866
     99  CB        10.6870   30.4960    5.8780 C.3    34  SER34       0.2089
    100  OG        10.2460   29.2900    6.5240 O.3    34  SER34      -0.2183
    101  N         16.7530   33.2530    2.9250 N.3    57  ALA57      -0.1245
    102  CA        15.4810   32.5890    2.9020 C.3    57  ALA57       0.1562
    103  C         14.5540   33.2740    1.9010 C.2    57  ALA57       0.2260
    104  O         14.3710   34.4850    1.9530 O.2    57  ALA57      -0.2867
    105  CB        14.8640   32.5860    4.3170 C.3    57  ALA57       0.0290
    106  N         16.8460   31.3530   -2.1370 N.3    60  GLU60      -0.1245
    107  CA        17.8080   30.2520   -2.2580 C.3    60  GLU60       0.1567
    108  C         18.0470   29.8460   -3.7330 C.2    60  GLU60       0.2260
    109  O         19.1680   29.4760   -4.1050 O.2    60  GLU60      -0.2867
    110  CB        17.3520   29.0280   -1.4680 C.3    60  GLU60       0.0388
    111  CG        17.2960   29.2270    0.0350 C.3    60  GLU60       0.1160
    112  CD        15.9490   29.6010    0.5830 C.2    60  GLU60       0.3649
    113  OE1       15.0910   30.0620   -0.1850 O.co2  60  GLU60      -0.2457
    114  OE2       15.7120   29.4380    1.8110 O.co2  60  GLU60      -0.2457
    115  N         21.6800   22.1070   11.9210 N.3   113  ASN113     -0.1225
    116  CA        20.5670   22.6000   12.6840 C.3   113  ASN113      0.1785
    117  C         19.4650   21.5460   12.9130 C.2   113  ASN113      0.2597
    118  O         19.4970   20.4360   12.3390 O.2   113  ASN113     -0.2718
    119  CB        20.0250   23.8830   12.0420 C.3   113  ASN113      0.1169
    120  CG        19.0550   24.6350   12.9500 C.2   113  ASN113      0.2627
    121  OD1       19.3510   24.8840   14.1040 O.2   113  ASN113     -0.2716
    122  ND2       17.8710   24.9710   12.4190 N.am  113  ASN113     -0.0877
    123  N         18.5750   21.8620   13.8290 N.am  114  LYS114     -0.1980
    124  CA        17.4810   20.9560   14.2750 C.3   114  LYS114      0.1596
    125  C         18.0620   19.7720   15.0270 C.2   114  LYS114      0.2287
    126  O         17.4790   18.6960   15.0990 O.2   114  LYS114     -0.2864
    127  CB        16.6010   20.5070   13.0820 C.3   114  LYS114      0.0298
    128  CG        16.1900   21.6190   12.1740 C.3   114  LYS114      0.0038
    129  CD        14.9160   21.2830   11.4170 C.3   114  LYS114      0.0206
    130  CE        14.6000   22.3160   10.3730 C.3   114  LYS114      0.1093
    131  NZ        13.2360   22.0490    9.6420 N.3   114  LYS114     -0.1314
    132  N         17.9210   19.3160   18.0800 N.3   116  ASP116     -0.1225
    133  CA        16.8940   18.8740   19.0340 C.3   116  ASP116      0.1805
    134  C         16.1360   17.6230   18.5310 C.2   116  ASP116      0.2597
    135  O         15.5270   16.9010   19.3400 O.2   116  ASP116     -0.2718
    136  CB        15.9290   20.0170   19.3560 C.3   116  ASP116      0.1424
    137  CG        15.2300   20.5450   18.1430 C.2   116  ASP116      0.3668
    138  OD1       15.8630   21.2990   17.3450 O.co2 116  ASP116     -0.2456
    139  OD2       14.0440   20.2230   17.9490 O.co2 116  ASP116     -0.2456
    140  N         16.2160   17.3580   17.2250 N.am  117  LEU117     -0.1979
    141  CA        15.5640   16.1840   16.6110 C.3   117  LEU117      0.1596
    142  C         16.5930   15.0630   16.3310 C.2   117  LEU117      0.2287
    143  O         16.4880   14.3470   15.3390 O.2   117  LEU117     -0.2864
    144  CB        14.8510   16.6160   15.3180 C.3   117  LEU117      0.0297
    145  CG        13.8620   17.7760   15.4430 C.3   117  LEU117      0.0022
    146  CD1       13.2510   18.1000   14.1150 C.3   117  LEU117      0.0001
    147  CD2       12.7880   17.4850   16.4550 C.3   117  LEU117      0.0001
    148  N         20.4620   24.1600   17.5750 N.3   143  SER143     -0.1202
    149  CA        19.0160   24.1180   17.5800 C.3   143  SER143      0.2020
    150  C         18.4740   25.5140   17.8090 C.2   143  SER143      0.2619
    151  O         18.5650   26.0240   18.9210 O.2   143  SER143     -0.2717
    152  CB        18.4950   23.2280   18.6860 C.3   143  SER143      0.2103
    153  OG        17.0320   23.2630   18.7520 O.3   143  SER143     -0.2182
    154  N         17.9100   26.1310   16.7820 N.am  144  ALA144     -0.1965
    155  CA        17.1590   27.3840   16.9960 C.3   144  ALA144      0.1728
    156  C         16.0430   27.1420   17.9880 C.2   144  ALA144      0.2616
    157  O         15.6640   28.0350   18.7620 O.2   144  ALA144     -0.2715
    158  CB        16.5880   27.8550   15.7320 C.3   144  ALA144      0.0334
    159  N         15.4570   25.9510   17.9410 N.am  145  LYS145     -0.1977
    160  CA        14.2910   25.6530   18.7560 C.3   145  LYS145      0.1596
    161  C         14.5540   25.7170   20.2450 C.2   145  LYS145      0.2287
    162  O         13.7460   26.2670   21.0170 O.2   145  LYS145     -0.2864
    163  CB        13.6770   24.3010   18.4090 C.3   145  LYS145      0.0298
    164  CG        12.4310   24.0270   19.2020 C.3   145  LYS145      0.0038
    165  CD        11.6520   22.8190   18.6550 C.3   145  LYS145      0.0206
    166  CE        10.3460   22.6240   19.3720 C.3   145  LYS145      0.1093
    167  NZ         9.4280   21.6420   18.6990 N.3   145  LYS145     -0.1314
@<TRIPOS>BOND
     1   109   108    2
     2   108   107    1
     3   107   106    1
     4   107   110    1
     5   110   111    1
     6   113   112   ar
     7   111   112    1
     8   112   114   ar
     9     5     6    1
    10     5     2    1
    11     1     2    1
    12   103   104    2
    13   103   102    1
    14     2     3    1
    15   102   101    1
    16   102   105    1
    17     4     3    2
    18     3     7   am
    19    31    30    1
    20    30    29    1
    21     7     8    1
    22    29    28    1
    23    98    97    2
    24    11     8    1
    25    17    16    1
    26     8     9    1
    27    99   100    1
    28    99    96    1
    29    28    27    1
    30    97    96    1
    31    18    16    1
    32    12     9   am
    33    12    13    1
    34     9    10    2
    35    16    13    1
    36    96    95    1
    37    27    24    1
    38    13    14    1
    39    37    36    1
    40    24    23    1
    41    24    25    1
    42    19    14   am
    43    19    20    1
    44    14    15    2
    45    23    21   am
    46    36    33    1
    47    32    25   am
    48    32    33    1
    49    25    26    2
    50    33    34    1
    51    89    88    2
    52   131   130    1
    53    21    20    1
    54    21    22    2
    55    88    87    1
    56   130   129    1
    57    77    76    2
    58    34    38   am
    59    34    35    2
    60   129   128    1
    61    38    39    1
    62    87    86    1
    63    87    90    1
    64    76    75    1
    65    76    86   am
    66   115   116    1
    67   119   116    1
    68   119   120    1
    69    75    78    1
    70    75    74    1
    71   128   127    1
    72    81    83   ar
    73    81    79   ar
    74   118   117    2
    75    78    79    1
    76    90    91    1
    77   122   120   am
    78    43    42    1
    79   116   117    1
    80    83    84   ar
    81   117   123   am
    82    39    42    1
    83    39    40    1
    84   120   121    2
    85    79    80   ar
    86   127   124    1
    87    74    67   am
    88    91    92    1
    89    40    41    2
    90    93    92    2
    91   123   124    1
    92   146   145    1
    93    92    94   am
    94    84    85    1
    95    84    82   ar
    96   124   125    1
    97    80    82   ar
    98    67    68    2
    99    67    66    1
   100    73    71   ar
   101   125   126    2
   102    70    71    1
   103    70    69    1
   104    58    57    2
   105   144   145    1
   106   144   141    1
   107   143   142    2
   108   145   147    1
   109    66    69    1
   110    66    65    1
   111   158   155    1
   112    71    72   ar
   113    52    54   ar
   114    52    50   ar
   115    54    53   ar
   116    57    65   am
   117    57    56    1
   118   142   141    1
   119   141   140    1
   120    50    49   ar
   121   154   155    1
   122   154   150   am
   123   155   156    1
   124   140   134   am
   125    59    56    1
   126    59    60    1
   127   138   137   ar
   128    53    51   ar
   129    56    55    1
   130   148   149    1
   131   149   150    1
   132   149   152    1
   133    55    46   am
   134   150   151    2
   135    49    51   ar
   136    49    48    1
   137   159   156   am
   138   159   160    1
   139   139   137   ar
   140   156   157    2
   141    61    60   ar
   142    61    63   ar
   143   132   133    1
   144   137   136    1
   145    60    62   ar
   146   163   160    1
   147   163   164    1
   148   134   133    1
   149   134   135    2
   150   165   164    1
   151   165   166    1
   152   152   153    1
   153   167   166    1
   154    45    46    1
   155    45    48    1
   156    45    44    1
   157   160   161    1
   158    46    47    2
   159   133   136    1
   160    63    64   ar
   161    62    64   ar
   162   161   162    2
