@<TRIPOS>MOLECULE
tmp/2hejB01.pdb
 113 114 0 0 0
SMALL
GASTEIGER

@<TRIPOS>ATOM
      1  N          7.0950    1.4700   77.5720 N.3    19  ALA19      -0.1231
      2  CA         7.6910    1.5750   78.9020 C.3    19  ALA19       0.1694
      3  C          7.5440    3.0360   79.3230 C.2    19  ALA19       0.2591
      4  O          7.5430    3.9310   78.4770 O.2    19  ALA19      -0.2718
      5  CB         9.1610    1.1850   78.8580 C.3    19  ALA19       0.0304
      6  N          7.4250    3.2770   80.6250 N.am   20  LEU20      -0.1980
      7  CA         7.2540    4.6360   81.1360 C.3    20  LEU20       0.1596
      8  C          8.2330    5.0110   82.2390 C.2    20  LEU20       0.2287
      9  O          8.7650    4.1470   82.9330 O.2    20  LEU20      -0.2864
     10  CB         5.8360    4.8100   81.6890 C.3    20  LEU20       0.0297
     11  CG         4.6440    4.6660   80.7440 C.3    20  LEU20       0.0022
     12  CD1        3.3530    4.6390   81.5520 C.3    20  LEU20       0.0001
     13  CD2        4.6370    5.8150   79.7560 C.3    20  LEU20       0.0001
     14  N          6.8570   -7.2750   82.7400 N.3    49  VAL49      -0.1231
     15  CA         7.4000   -6.5200   83.8670 C.3    49  VAL49       0.1692
     16  C          6.9990   -5.0410   83.8810 C.2    49  VAL49       0.2592
     17  O          7.0670   -4.3910   84.9250 O.2    49  VAL49      -0.2718
     18  CB         8.9490   -6.6350   83.9150 C.3    49  VAL49       0.0266
     19  CG1        9.5770   -5.7900   82.8210 C.3    49  VAL49       0.0020
     20  CG2        9.4600   -6.2230   85.2890 C.3    49  VAL49       0.0020
     21  N          6.5810   -4.5030   82.7360 N.am   50  TYR50      -0.1976
     22  CA         6.1730   -3.0980   82.6770 C.3    50  TYR50       0.1639
     23  C          4.8680   -2.9060   83.4510 C.2    50  TYR50       0.2290
     24  O          4.5700   -1.8080   83.9210 O.2    50  TYR50      -0.2864
     25  CB         5.9670   -2.6450   81.2250 C.3    50  TYR50       0.0560
     26  CG         7.2030   -2.6810   80.3450 C.ar   50  TYR50      -0.0198
     27  CD1        7.0880   -2.5720   78.9590 C.ar   50  TYR50      -0.0009
     28  CD2        8.4790   -2.8510   80.8860 C.ar   50  TYR50      -0.0009
     29  CE1        8.2040   -2.6400   78.1300 C.ar   50  TYR50       0.0417
     30  CE2        9.6080   -2.9180   80.0620 C.ar   50  TYR50       0.0417
     31  CZ         9.4610   -2.8160   78.6850 C.ar   50  TYR50       0.1957
     32  OH        10.5580   -2.9230   77.8560 O.3    50  TYR50      -0.2866
     33  N          9.3760  -12.2400   81.8090 N.3    81  TRP81      -0.1241
     34  CA        10.3190  -11.7380   82.7970 C.3    81  TRP81       0.1605
     35  C         11.1720  -12.8280   83.4530 C.2    81  TRP81       0.2264
     36  O         10.8350  -14.0140   83.4270 O.2    81  TRP81      -0.2867
     37  CB         9.5640  -10.9350   83.8620 C.3    81  TRP81       0.0550
     38  CG        10.4640  -10.2550   84.8490 C.ar   81  TRP81       0.0003
     39  CD1       10.4840  -10.4430   86.1990 C.ar   81  TRP81       0.0946
     40  CD2       11.5060   -9.3150   84.5580 C.ar   81  TRP81       0.0152
     41  NE1       11.4770   -9.6830   86.7690 N.ar   81  TRP81      -0.2442
     42  CE2       12.1210   -8.9820   85.7850 C.ar   81  TRP81       0.0810
     43  CE3       11.9810   -8.7250   83.3800 C.ar   81  TRP81       0.0012
     44  CZ2       13.1910   -8.0830   85.8700 C.ar   81  TRP81       0.0191
     45  CZ3       13.0430   -7.8290   83.4620 C.ar   81  TRP81       0.0001
     46  CH2       13.6370   -7.5180   84.7020 C.ar   81  TRP81       0.0015
     47  N         13.0460  -11.5620   78.0860 N.3   112  HIS112     -0.1226
     48  CA        13.4940  -10.2160   78.4460 C.3   112  HIS112      0.1752
     49  C         14.9900  -10.0960   78.7370 C.2   112  HIS112      0.2596
     50  O         15.6430   -9.1690   78.2570 O.2   112  HIS112     -0.2718
     51  CB        12.6690   -9.7070   79.6320 C.3   112  HIS112      0.0759
     52  CG        12.6550   -8.2150   79.7650 C.ar  112  HIS112      0.0818
     53  ND1       11.5160   -7.5080   80.0850 N.ar  112  HIS112     -0.2268
     54  CD2       13.6450   -7.2990   79.6480 C.ar  112  HIS112      0.1154
     55  CE1       11.8050   -6.2210   80.1590 C.ar  112  HIS112      0.1986
     56  NE2       13.0910   -6.0680   79.8990 N.ar  112  HIS112     -0.2212
     57  N         15.5170  -11.0290   79.5260 N.am  113  TYR113     -0.1976
     58  CA        16.9350  -11.0780   79.8790 C.3   113  TYR113      0.1639
     59  C         17.3360  -12.5450   80.0000 C.2   113  TYR113      0.2290
     60  O         16.5180  -13.3900   80.3650 O.2   113  TYR113     -0.2864
     61  CB        17.2050  -10.4100   81.2360 C.3   113  TYR113      0.0560
     62  CG        17.3370   -8.9030   81.2410 C.ar  113  TYR113     -0.0198
     63  CD1       16.3610   -8.1050   81.8370 C.ar  113  TYR113     -0.0009
     64  CD2       18.4580   -8.2780   80.6920 C.ar  113  TYR113     -0.0009
     65  CE1       16.4980   -6.7170   81.8920 C.ar  113  TYR113      0.0417
     66  CE2       18.6050   -6.8930   80.7380 C.ar  113  TYR113      0.0417
     67  CZ        17.6220   -6.1210   81.3410 C.ar  113  TYR113      0.1957
     68  OH        17.7630   -4.7540   81.4010 O.3   113  TYR113     -0.2866
     69  N         11.1840   -8.3300   91.4340 N.3   124  PHE124     -0.1241
     70  CA        12.5560   -8.0840   91.8500 C.3   124  PHE124      0.1605
     71  C         12.8240   -8.6400   93.2440 C.2   124  PHE124      0.2264
     72  O         13.0160   -7.8920   94.2100 O.2   124  PHE124     -0.2867
     73  CB        12.8670   -6.5840   91.7880 C.3   124  PHE124      0.0534
     74  CG        12.7430   -6.0030   90.4060 C.ar  124  PHE124     -0.0203
     75  CD1       11.5170   -5.5430   89.9360 C.ar  124  PHE124     -0.0042
     76  CD2       13.8420   -5.9750   89.5520 C.ar  124  PHE124     -0.0042
     77  CE1       11.3860   -5.0650   88.6300 C.ar  124  PHE124     -0.0003
     78  CE2       13.7210   -5.5000   88.2470 C.ar  124  PHE124     -0.0003
     79  CZ        12.4940   -5.0470   87.7850 C.ar  124  PHE124     -0.0000
     80  N         15.7020    6.0130   82.8210 N.3   219  TYR219     -0.1241
     81  CA        14.9550    5.4910   83.9610 C.3   219  TYR219      0.1605
     82  C         15.7040    5.5280   85.2830 C.2   219  TYR219      0.2264
     83  O         16.8280    5.0370   85.3880 O.2   219  TYR219     -0.2867
     84  CB        14.5380    4.0450   83.6940 C.3   219  TYR219      0.0534
     85  CG        13.9160    3.8200   82.3390 C.ar  219  TYR219     -0.0201
     86  CD1       14.7090    3.5530   81.2220 C.ar  219  TYR219     -0.0009
     87  CD2       12.5350    3.8840   82.1710 C.ar  219  TYR219     -0.0009
     88  CE1       14.1370    3.3520   79.9670 C.ar  219  TYR219      0.0417
     89  CE2       11.9540    3.6890   80.9250 C.ar  219  TYR219      0.0417
     90  CZ        12.7590    3.4220   79.8280 C.ar  219  TYR219      0.1957
     91  OH        12.1730    3.2320   78.6020 O.3   219  TYR219     -0.2866
     92  N         18.0770    2.6990   86.8990 N.3   222  TRP222     -0.1241
     93  CA        18.6870    1.8970   85.8450 C.3   222  TRP222      0.1605
     94  C         19.7620    2.6520   85.0730 C.2   222  TRP222      0.2264
     95  O         20.8020    2.0890   84.7340 O.2   222  TRP222     -0.2867
     96  CB        17.6190    1.4020   84.8670 C.3   222  TRP222      0.0550
     97  CG        16.6250    0.4800   85.4830 C.ar  222  TRP222      0.0003
     98  CD1       15.5690    0.8210   86.2810 C.ar  222  TRP222      0.0946
     99  CD2       16.6130   -0.9480   85.3890 C.ar  222  TRP222      0.0152
    100  NE1       14.8990   -0.3090   86.6900 N.ar  222  TRP222     -0.2442
    101  CE2       15.5200   -1.4090   86.1580 C.ar  222  TRP222      0.0810
    102  CE3       17.4210   -1.8850   84.7300 C.ar  222  TRP222      0.0012
    103  CZ2       15.2140   -2.7680   86.2860 C.ar  222  TRP222      0.0191
    104  CZ3       17.1170   -3.2360   84.8570 C.ar  222  TRP222      0.0001
    105  CH2       16.0210   -3.6640   85.6300 C.ar  222  TRP222      0.0015
    106  N         21.7840    1.2980   79.8250 N.3   301  ILE301     -0.1245
    107  CA        21.1090    0.3380   80.6860 C.3   301  ILE301      0.1561
    108  C         21.9150   -0.9480   80.8210 C.2   301  ILE301      0.2260
    109  O         21.6640   -1.9390   80.1350 O.2   301  ILE301     -0.2867
    110  CB        19.6930    0.0080   80.1600 C.3   301  ILE301      0.0252
    111  CG1       18.9520    1.3050   79.8170 C.3   301  ILE301      0.0019
    112  CG2       18.9190   -0.7680   81.2210 C.3   301  ILE301      0.0019
    113  CD1       17.5080    1.1160   79.3900 C.3   301  ILE301      0.0001
@<TRIPOS>BOND
     1     1     2    1
     2    32    31    1
     3    47    48    1
     4    29    31   ar
     5    29    27   ar
     6    50    49    2
     7    48    49    1
     8    48    51    1
     9     4     3    2
    10    91    90    1
    11    31    30   ar
    12    49    57   am
    13     5     2    1
    14     2     3    1
    15    27    26   ar
    16     3     6   am
    17   113   111    1
    18    57    58    1
    19    51    52    1
    20    54    52   ar
    21    54    56   ar
    22    13    11    1
    23    52    53   ar
    24   111   110    1
    25   106   107    1
    26    90    88   ar
    27    90    89   ar
    28    58    59    1
    29    58    61    1
    30    56    55   ar
    31    88    86   ar
    32    59    60    2
    33    30    28   ar
    34    53    55   ar
    35   109   108    2
    36   110   107    1
    37   110   112    1
    38    26    28   ar
    39    26    25    1
    40     6     7    1
    41   107   108    1
    42    64    66   ar
    43    64    62   ar
    44    66    67   ar
    45    11    12    1
    46    11    10    1
    47    89    87   ar
    48     7    10    1
    49     7     8    1
    50    86    85   ar
    51    25    22    1
    52    61    62    1
    53    62    63   ar
    54    67    68    1
    55    67    65   ar
    56    33    34    1
    57    63    65   ar
    58    87    85   ar
    59     8     9    2
    60    85    84    1
    61    22    21    1
    62    22    23    1
    63    21    16   am
    64    14    15    1
    65    34    35    1
    66    34    37    1
    67    19    18    1
    68    80    81    1
    69    43    45   ar
    70    43    40   ar
    71    36    35    2
    72    23    24    2
    73    45    46   ar
    74    84    81    1
    75    37    38    1
    76    15    16    1
    77    15    18    1
    78    16    17    2
    79    18    20    1
    80    81    82    1
    81    40    38   ar
    82    40    42   ar
    83    46    44   ar
    84   102   104   ar
    85   102    99   ar
    86    95    94    2
    87    38    39   ar
    88   104   105   ar
    89    96    97    1
    90    96    93    1
    91    94    93    1
    92    82    83    2
    93    99    97   ar
    94    99   101   ar
    95    97    98   ar
    96   105   103   ar
    97    42    44   ar
    98    42    41   ar
    99    93    92    1
   100   101   103   ar
   101   101   100   ar
   102    39    41   ar
   103    98   100   ar
   104    79    78   ar
   105    79    77   ar
   106    78    76   ar
   107    77    75   ar
   108    76    74   ar
   109    75    74   ar
   110    74    73    1
   111    69    70    1
   112    73    70    1
   113    70    71    1
   114    71    72    2
