@<TRIPOS>MOLECULE
tmp/2hekA00.pdb
 90 88 0 0 0
SMALL
GASTEIGER

@<TRIPOS>ATOM
      1  N         23.3860    2.8210   40.6000 N.3    41  TYR41      -0.1227
      2  CA        22.8780    2.1080   39.4070 C.3    41  TYR41       0.1736
      3  C         23.3620    0.6560   39.4110 C.2    41  TYR41       0.2595
      4  O         22.8260   -0.1900   38.6840 O.2    41  TYR41      -0.2718
      5  CB        23.3040    2.8110   38.1110 C.3    41  TYR41       0.0548
      6  CG        24.8000    2.6980   37.8460 C.ar   41  TYR41      -0.0200
      7  CD1       25.2970    1.7460   36.9720 C.ar   41  TYR41      -0.0009
      8  CD2       25.7110    3.5210   38.4850 C.ar   41  TYR41      -0.0009
      9  CE1       26.6650    1.6240   36.7250 C.ar   41  TYR41       0.0417
     10  CE2       27.0750    3.4020   38.2540 C.ar   41  TYR41       0.0417
     11  CZ        27.5400    2.4440   37.3830 C.ar   41  TYR41       0.1957
     12  OH        28.8890    2.3220   37.1310 O.3    41  TYR41      -0.2866
     13  N         24.3500    0.3600   40.2630 N.am   42  LEU42      -0.1966
     14  CA        24.8330   -1.0200   40.3950 C.3    42  LEU42       0.1728
     15  C         23.8390   -1.8820   41.1870 C.2    42  LEU42       0.2616
     16  O         23.9700   -3.1100   41.2320 O.2    42  LEU42      -0.2715
     17  CB        26.2070   -1.0530   41.0790 C.3    42  LEU42       0.0311
     18  CG        27.3480   -0.4720   40.2310 C.3    42  LEU42       0.0022
     19  CD1       28.6670   -0.5130   41.0610 C.3    42  LEU42       0.0001
     20  CD2       27.5300   -1.2270   38.8880 C.3    42  LEU42       0.0001
     21  N         22.8530   -1.2420   41.8070 N.am   43  VAL43      -0.1977
     22  CA        21.8070   -1.9380   42.5640 C.3    43  VAL43       0.1596
     23  C         20.4150   -1.6580   41.9290 C.2    43  VAL43       0.2287
     24  O         19.5880   -2.5770   41.7750 O.2    43  VAL43      -0.2864
     25  CB        21.7900   -1.4450   44.0460 C.3    43  VAL43       0.0276
     26  CG1       20.6430   -2.0900   44.8460 C.3    43  VAL43       0.0022
     27  CG2       23.1140   -1.7190   44.7280 C.3    43  VAL43       0.0022
     28  N         19.1770   -0.5220   38.5480 N.3    45  PRO45      -0.2116
     29  CA        19.8620   -0.3470   37.2540 C.3    45  PRO45       0.1372
     30  C         19.4750    0.9070   36.4660 C.2    45  PRO45       0.2244
     31  O         20.3160    1.4600   35.7500 O.2    45  PRO45      -0.2868
     32  CB        19.4750   -1.6370   36.4840 C.3    45  PRO45       0.0268
     33  CG        19.3250   -2.6530   37.5880 C.3    45  PRO45       0.0207
     34  CD        18.5680   -1.8640   38.6450 C.3    45  PRO45       0.0892
     35  N         20.0190    1.6320   51.3680 N.3   223  HIS223     -0.1226
     36  CA        20.0150    0.2490   50.9180 C.3   223  HIS223      0.1752
     37  C         21.3980   -0.3280   51.3160 C.2   223  HIS223      0.2596
     38  O         22.4200    0.3100   51.1200 O.2   223  HIS223     -0.2718
     39  CB        19.8150    0.1900   49.3900 C.3   223  HIS223      0.0759
     40  CG        19.6410   -1.1870   48.8520 C.ar  223  HIS223      0.0818
     41  ND1       20.6940   -2.0660   48.7160 N.ar  223  HIS223     -0.2268
     42  CD2       18.5380   -1.8370   48.3890 C.ar  223  HIS223      0.1154
     43  CE1       20.2530   -3.1960   48.1950 C.ar  223  HIS223      0.1986
     44  NE2       18.9550   -3.0730   47.9570 N.ar  223  HIS223     -0.2212
     45  N         21.4110   -1.5340   51.8610 N.am  224  LYS224     -0.1966
     46  CA        22.6350   -2.0500   52.4820 C.3   224  LYS224      0.1728
     47  C         23.7560   -2.1910   51.4550 C.2   224  LYS224      0.2616
     48  O         24.9110   -1.9470   51.7780 O.2   224  LYS224     -0.2715
     49  CB        22.3600   -3.3830   53.1570 C.3   224  LYS224      0.0311
     50  CG        21.9940   -4.5010   52.2190 C.3   224  LYS224      0.0038
     51  CD        21.2990   -5.6570   52.9670 C.3   224  LYS224      0.0206
     52  CE        21.2670   -6.8910   52.0820 C.3   224  LYS224      0.1093
     53  NZ        20.3660   -7.9460   52.6330 N.3   224  LYS224     -0.1314
     54  N         23.4060   -2.5760   50.2170 N.am  225  VAL225     -0.1977
     55  CA        24.4090   -2.7070   49.1460 C.3   225  VAL225      0.1596
     56  C         24.8310   -1.3490   48.6120 C.2   225  VAL225      0.2287
     57  O         26.0110   -1.1490   48.3780 O.2   225  VAL225     -0.2864
     58  CB        23.9470   -3.6530   47.9950 C.3   225  VAL225      0.0276
     59  CG1       25.0350   -3.8280   46.9290 C.3   225  VAL225      0.0022
     60  CG2       23.5140   -4.9820   48.5680 C.3   225  VAL225      0.0022
     61  N         31.3390   -7.2250   41.4840 N.3   280  ARG280     -0.1245
     62  CA        30.4170   -7.8210   42.4720 C.3   280  ARG280      0.1563
     63  C         31.1060   -8.5750   43.6110 C.2   280  ARG280      0.2260
     64  O         30.5790   -9.5570   44.1070 O.2   280  ARG280     -0.2867
     65  CB        29.4090   -8.7210   41.7460 C.3   280  ARG280      0.0307
     66  CG        27.9410   -8.5000   42.1750 C.3   280  ARG280      0.0489
     67  CD        27.2170   -7.3880   41.4220 C.3   280  ARG280      0.2205
     68  NE        26.0110   -6.9310   42.1060 N.pl3 280  ARG280     -0.0865
     69  CZ        25.5190   -5.7010   42.0100 C.cat 280  ARG280      0.5346
     70  NH1       26.1300   -4.8000   41.2560 N.pl3 280  ARG280      0.1354
     71  NH2       24.4160   -5.3760   42.6680 N.pl3 280  ARG280      0.1354
     72  N         31.9440   -6.9040   46.4810 N.3   282  HIS282     -0.1241
     73  CA        31.7560   -6.0150   47.6300 C.3   282  HIS282      0.1621
     74  C         31.6630   -6.8630   48.9020 C.2   282  HIS282      0.2264
     75  O         31.1850   -8.0050   48.8560 O.2   282  HIS282     -0.2867
     76  CB        30.4720   -5.1380   47.4650 C.3   282  HIS282      0.0745
     77  CG        29.1950   -5.9200   47.3300 C.ar  282  HIS282      0.0817
     78  ND1       28.4950   -6.4050   48.4180 N.ar  282  HIS282     -0.2268
     79  CD2       28.4500   -6.2310   46.2410 C.ar  282  HIS282      0.1154
     80  CE1       27.4170   -7.0520   48.0000 C.ar  282  HIS282      0.1986
     81  NE2       27.3590   -6.9490   46.6810 N.ar  282  HIS282     -0.2212
     82  N         30.1490   -8.5100   52.0010 N.3   284  LYS284     -0.1245
     83  CA        28.7960   -9.0270   52.1080 C.3   284  LYS284      0.1561
     84  C         28.1790   -8.6420   53.4700 C.2   284  LYS284      0.2260
     85  O         28.8720   -8.6110   54.4790 O.2   284  LYS284     -0.2867
     86  CB        28.8440  -10.5300   51.8870 C.3   284  LYS284      0.0271
     87  CG        27.5200  -11.2400   51.9570 C.3   284  LYS284      0.0035
     88  CD        27.6340  -12.5930   51.2700 C.3   284  LYS284      0.0206
     89  CE        26.2720  -13.2330   51.0670 C.3   284  LYS284      0.1093
     90  NZ        26.3820  -14.4170   50.1610 N.3   284  LYS284     -0.1314
@<TRIPOS>BOND
     1    31    30    2
     2    30    29    1
     3    32    29    1
     4    32    33    1
     5     9     7   ar
     6     9    11   ar
     7     7     6   ar
     8    12    11    1
     9    29    28    1
    10    11    10   ar
    11    33    34    1
    12     6     5    1
    13     6     8   ar
    14     5     2    1
    15    10     8   ar
    16    28    34    1
    17     4     3    2
    18    20    18    1
    19     2     3    1
    20     2     1    1
    21     3    13   am
    22    18    19    1
    23    18    17    1
    24    13    14    1
    25    14    17    1
    26    14    15    1
    27    15    16    2
    28    15    21   am
    29    70    69    1
    30    67    68    1
    31    67    66    1
    32    61    62    1
    33    65    66    1
    34    65    62    1
    35    24    23    2
    36    21    22    1
    37    23    22    1
    38    69    68    2
    39    69    71    1
    40    62    63    1
    41    22    25    1
    42    63    64    2
    43    25    27    1
    44    25    26    1
    45    79    81   ar
    46    79    77   ar
    47    72    73    1
    48    81    80   ar
    49    59    58    1
    50    77    76    1
    51    77    78   ar
    52    76    73    1
    53    73    74    1
    54    44    43   ar
    55    44    42   ar
    56    58    60    1
    57    58    55    1
    58    80    78   ar
    59    43    41   ar
    60    57    56    2
    61    42    40   ar
    62    56    55    1
    63    41    40   ar
    64    40    39    1
    65    75    74    2
    66    55    54    1
    67    39    36    1
    68    90    89    1
    69    54    47   am
    70    36    37    1
    71    36    35    1
    72    89    88    1
    73    38    37    2
    74    88    87    1
    75    37    45   am
    76    47    48    2
    77    47    46    1
    78    45    46    1
    79    86    87    1
    80    86    83    1
    81    82    83    1
    82    52    53    1
    83    52    51    1
    84    83    84    1
    85    50    51    1
    86    50    49    1
    87    46    49    1
    88    84    85    2
