@<TRIPOS>MOLECULE
tmp/2henB00.pdb
 185 176 0 0 0
SMALL
GASTEIGER

@<TRIPOS>ATOM
      1  N         13.4350   43.9120   76.7800 N.3    15  ILE15      -0.1231
      2  CA        13.8810   43.1610   77.9500 C.3    15  ILE15       0.1692
      3  C         15.3590   42.8060   77.9770 C.2    15  ILE15       0.2593
      4  O         15.8350   42.2570   78.9590 O.2    15  ILE15      -0.2718
      5  CB        13.1030   41.8210   78.1130 C.3    15  ILE15       0.0266
      6  CG1       13.4080   40.8920   76.9320 C.3    15  ILE15       0.0019
      7  CG2       11.6020   42.0910   78.2440 C.3    15  ILE15       0.0020
      8  CD1       12.6580   39.5820   76.9820 C.3    15  ILE15       0.0001
      9  N         16.0880   43.0910   76.9120 N.am   16  GLY16      -0.1942
     10  CA        17.4910   42.7580   76.9070 C.3    16  GLY16       0.2014
     11  C         18.2400   43.3120   75.7110 C.2    16  GLY16       0.2639
     12  O         17.6710   44.0000   74.8580 O.2    16  GLY16      -0.2714
     13  N         19.5320   43.0030   75.6510 N.am   17  ALA17      -0.1963
     14  CA        20.4010   43.4540   74.5710 C.3    17  ALA17       0.1728
     15  C         21.1120   42.2610   73.9460 C.2    17  ALA17       0.2617
     16  O         21.6420   41.3940   74.6540 O.2    17  ALA17      -0.2715
     17  CB        21.4240   44.4390   75.1080 C.3    17  ALA17       0.0334
     18  N         21.1160   42.2120   72.6180 N.am   18  GLY18      -0.1940
     19  CA        21.7770   41.1290   71.9100 C.3    18  GLY18       0.2014
     20  C         22.9500   41.6690   71.1120 C.2    18  GLY18       0.2639
     21  O         23.0410   42.8760   70.8920 O.2    18  GLY18      -0.2714
     22  N         23.8470   40.7890   70.6780 N.am   19  GLU19      -0.1963
     23  CA        25.0140   41.2150   69.9140 C.3    19  GLU19       0.1733
     24  C         24.6110   41.9650   68.6520 C.2    19  GLU19       0.2616
     25  O         25.3630   42.7900   68.1500 O.2    19  GLU19      -0.2715
     26  CB        25.8660   40.0110   69.5490 C.3    19  GLU19       0.0429
     27  CG        26.6940   39.4090   70.6870 C.3    19  GLU19       0.1163
     28  CD        25.9650   38.3960   71.4910 C.2    19  GLU19       0.3649
     29  OE1       24.7670   38.1990   71.2690 O.co2  19  GLU19      -0.2457
     30  OE2       26.5760   37.7810   72.3260 O.co2  19  GLU19      -0.2457
     31  N         23.4180   41.6780   68.1450 N.am   20  PHE20      -0.1974
     32  CA        22.9250   42.3160   66.9290 C.3    20  PHE20       0.1639
     33  C         21.8570   43.3780   67.1530 C.2    20  PHE20       0.2290
     34  O         21.4370   44.0300   66.1990 O.2    20  PHE20      -0.2864
     35  CB        22.3870   41.2470   65.9740 C.3    20  PHE20       0.0560
     36  CG        23.4510   40.3500   65.4120 C.ar   20  PHE20      -0.0200
     37  CD1       24.3690   40.8370   64.4760 C.ar   20  PHE20      -0.0042
     38  CD2       23.5620   39.0290   65.8360 C.ar   20  PHE20      -0.0042
     39  CE1       25.3800   40.0210   63.9780 C.ar   20  PHE20      -0.0003
     40  CE2       24.5680   38.2040   65.3430 C.ar   20  PHE20      -0.0003
     41  CZ        25.4780   38.7000   64.4150 C.ar   20  PHE20      -0.0000
     42  N         16.3810   42.9170   72.4190 N.3    23  VAL23      -0.1245
     43  CA        15.4880   41.7760   72.4780 C.3    23  VAL23       0.1561
     44  C         14.2170   42.2310   73.2080 C.2    23  VAL23       0.2260
     45  O         14.2680   42.6820   74.3520 O.2    23  VAL23      -0.2867
     46  CB        16.1550   40.5910   73.2540 C.3    23  VAL23       0.0252
     47  CG1       15.1850   39.4180   73.3800 C.3    23  VAL23       0.0019
     48  CG2       17.4250   40.1540   72.5450 C.3    23  VAL23       0.0019
     49  N          9.3140   36.1230   72.2120 N.3    39  ALA39      -0.1245
     50  CA        10.4880   36.9690   72.3350 C.3    39  ALA39       0.1562
     51  C         10.8180   37.4930   70.9390 C.2    39  ALA39       0.2260
     52  O         10.6560   36.7780   69.9490 O.2    39  ALA39      -0.2867
     53  CB        11.6570   36.1730   72.8860 C.3    39  ALA39       0.0290
     54  N         13.9170   39.1670   68.8760 N.3    41  LYS41      -0.1245
     55  CA        15.2910   39.6500   68.7470 C.3    41  LYS41       0.1561
     56  C         15.3310   40.5200   67.5070 C.2    41  LYS41       0.2260
     57  O         14.9140   40.0890   66.4280 O.2    41  LYS41      -0.2867
     58  CB        16.2680   38.4860   68.6010 C.3    41  LYS41       0.0271
     59  CG        16.2100   37.5100   69.7660 C.3    41  LYS41       0.0035
     60  CD        17.1700   36.3360   69.5830 C.3    41  LYS41       0.0206
     61  CE        18.6310   36.7690   69.6100 C.3    41  LYS41       0.1093
     62  NZ        19.5300   35.5840   69.4510 N.3    41  LYS41      -0.1314
     63  N         22.8310   37.3050   61.0240 N.3    55  PHE55      -0.1241
     64  CA        21.7290   37.4300   61.9650 C.3    55  PHE55       0.1605
     65  C         20.6490   36.4120   61.6470 C.2    55  PHE55       0.2264
     66  O         20.3250   35.5540   62.4640 O.2    55  PHE55      -0.2867
     67  CB        21.1290   38.8330   61.8890 C.3    55  PHE55       0.0534
     68  CG        19.9790   39.0590   62.8270 C.ar   55  PHE55      -0.0203
     69  CD1       20.1870   39.1300   64.1930 C.ar   55  PHE55      -0.0042
     70  CD2       18.6930   39.2110   62.3370 C.ar   55  PHE55      -0.0042
     71  CE1       19.1290   39.3530   65.0620 C.ar   55  PHE55      -0.0003
     72  CE2       17.6250   39.4350   63.1990 C.ar   55  PHE55      -0.0003
     73  CZ        17.8450   39.5060   64.5670 C.ar   55  PHE55      -0.0000
     74  N         20.9520   32.3850   62.1910 N.3    58  GLU58      -0.1245
     75  CA        20.5160   31.7250   63.4140 C.3    58  GLU58       0.1567
     76  C         19.1120   31.1390   63.3360 C.2    58  GLU58       0.2260
     77  O         18.8520   30.0650   63.8840 O.2    58  GLU58      -0.2867
     78  CB        20.5950   32.6990   64.5840 C.3    58  GLU58       0.0388
     79  CG        20.0370   32.1360   65.8660 C.3    58  GLU58       0.1160
     80  CD        20.3400   33.0030   67.0570 C.2    58  GLU58       0.3649
     81  OE1       20.0100   34.2070   67.0150 O.co2  58  GLU58      -0.2457
     82  OE2       20.9030   32.4790   68.0360 O.co2  58  GLU58      -0.2457
     83  N         15.5210   25.8370   71.8700 N.3    71  ILE71      -0.1245
     84  CA        14.6880   26.9850   71.5700 C.3    71  ILE71       0.1561
     85  C         13.8690   26.7930   70.3110 C.2    71  ILE71       0.2260
     86  O         14.4050   26.4660   69.2540 O.2    71  ILE71      -0.2867
     87  CB        15.5290   28.2540   71.4220 C.3    71  ILE71       0.0252
     88  CG1       16.1080   28.6380   72.7750 C.3    71  ILE71       0.0019
     89  CG2       14.6530   29.4180   70.9850 C.3    71  ILE71       0.0019
     90  CD1       15.0260   29.0130   73.7660 C.3    71  ILE71       0.0001
     91  N         10.9310   33.8730   68.7100 N.3    87  THR87      -0.1203
     92  CA        11.0730   32.5320   69.2700 C.3    87  THR87       0.1994
     93  C         10.1980   32.4350   70.5040 C.2    87  THR87       0.2618
     94  O          9.5900   33.4230   70.8920 O.2    87  THR87      -0.2717
     95  CB        12.4970   32.2700   69.7200 C.3    87  THR87       0.1784
     96  OG1       12.7810   33.1140   70.8400 O.3    87  THR87      -0.2211
     97  CG2       13.4860   32.5790   68.6110 C.3    87  THR87       0.0376
     98  N         10.1400   31.2540   71.1220 N.am   88  GLU88      -0.1965
     99  CA         9.3340   31.0700   72.3310 C.3    88  GLU88       0.1733
    100  C          9.8960   31.9360   73.4430 C.2    88  GLU88       0.2616
    101  O         11.0820   32.2690   73.4460 O.2    88  GLU88      -0.2715
    102  CB         9.3320   29.6080   72.7900 C.3    88  GLU88       0.0429
    103  CG        10.7000   29.0700   73.2010 C.3    88  GLU88       0.1163
    104  CD        10.6520   27.5880   73.5630 C.2    88  GLU88       0.3649
    105  OE1        9.9290   27.2290   74.5190 O.co2  88  GLU88      -0.2457
    106  OE2       11.3340   26.7830   72.8860 O.co2  88  GLU88      -0.2457
    107  N          9.0430   32.2840   74.3970 N.am   89  PHE89      -0.1960
    108  CA         9.4490   33.1170   75.5130 C.3    89  PHE89       0.1771
    109  C          9.9730   32.3170   76.7090 C.2    89  PHE89       0.2619
    110  O          9.3890   31.3020   77.1000 O.2    89  PHE89      -0.2715
    111  CB         8.2690   33.9750   75.9540 C.3    89  PHE89       0.0574
    112  CG         8.6300   34.9910   76.9730 C.ar   89  PHE89      -0.0200
    113  CD1        9.3540   36.1220   76.6100 C.ar   89  PHE89      -0.0042
    114  CD2        8.3070   34.7890   78.3100 C.ar   89  PHE89      -0.0042
    115  CE1        9.7560   37.0380   77.5660 C.ar   89  PHE89      -0.0003
    116  CE2        8.7050   35.7000   79.2760 C.ar   89  PHE89      -0.0003
    117  CZ         9.4320   36.8260   78.9020 C.ar   89  PHE89      -0.0000
    118  N         11.0720   32.7800   77.2940 N.am   90  MET90      -0.1963
    119  CA        11.6680   32.1000   78.4370 C.3    90  MET90       0.1736
    120  C         11.7460   33.1300   79.5520 C.2    90  MET90       0.2616
    121  O         12.6540   33.9520   79.5880 O.2    90  MET90      -0.2715
    122  CB        13.0510   31.5840   78.0630 C.3    90  MET90       0.0427
    123  CG        13.0630   30.6750   76.8450 C.3    90  MET90       0.0599
    124  SD        12.1630   29.1210   77.1030 S.3    90  MET90      -0.1393
    125  CE        13.4280   28.1000   77.8850 C.3    90  MET90       0.0692
    126  N         10.7830   33.0810   80.4650 N.am   91  GLU91      -0.1977
    127  CA        10.7160   34.0530   81.5370 C.3    91  GLU91       0.1602
    128  C         12.0180   34.3700   82.2570 C.2    91  GLU91       0.2287
    129  O         12.3890   35.5350   82.3900 O.2    91  GLU91      -0.2864
    130  CB         9.6620   33.6450   82.5540 C.3    91  GLU91       0.0415
    131  CG         9.4080   34.7450   83.5790 C.3    91  GLU91       0.1163
    132  CD         8.1830   34.4910   84.4400 C.2    91  GLU91       0.3649
    133  OE1        8.1530   33.4570   85.1530 O.co2  91  GLU91      -0.2457
    134  OE2        7.2510   35.3270   84.4020 O.co2  91  GLU91      -0.2457
    135  N         15.0410   34.1610   81.3710 N.3    93  GLY93      -0.1210
    136  CA        16.1730   34.4930   80.5220 C.3    93  GLY93       0.1956
    137  C         17.3670   33.5580   80.6010 C.2    93  GLY93       0.2612
    138  O         17.2130   32.3620   80.8450 O.2    93  GLY93      -0.2717
    139  N         18.5610   34.1150   80.4050 N.am   94  SER94      -0.1952
    140  CA        19.8110   33.3570   80.4300 C.3    94  SER94       0.1924
    141  C         20.0850   32.6200   81.7370 C.2    94  SER94       0.2314
    142  O         19.9010   33.1620   82.8270 O.2    94  SER94      -0.2863
    143  CB        20.9970   34.2760   80.1460 C.3    94  SER94       0.2116
    144  OG        20.9380   34.8140   78.8400 O.3    94  SER94      -0.2180
    145  N         25.6140   30.9450   79.5180 N.3   138  ARG138     -0.1231
    146  CA        24.9880   32.1430   78.9540 C.3   138  ARG138      0.1694
    147  C         24.1300   31.8650   77.7150 C.2   138  ARG138      0.2592
    148  O         23.2510   32.6650   77.3920 O.2   138  ARG138     -0.2718
    149  CB        26.0330   33.2120   78.5980 C.3   138  ARG138      0.0321
    150  CG        27.0630   32.7510   77.5830 C.3   138  ARG138      0.0489
    151  CD        27.9290   33.8880   77.0390 C.3   138  ARG138      0.2205
    152  NE        27.3160   34.5690   75.8920 N.pl3 138  ARG138     -0.0865
    153  CZ        26.3650   35.5030   75.9670 C.cat 138  ARG138      0.5346
    154  NH1       25.8950   35.8970   77.1500 N.pl3 138  ARG138      0.1354
    155  NH2       25.8770   36.0440   74.8500 N.pl3 138  ARG138      0.1354
    156  N         24.3710   30.7440   77.0320 N.am  139  ASN139     -0.1974
    157  CA        23.6140   30.3930   75.8260 C.3   139  ASN139      0.1688
    158  C         22.4360   29.4660   76.0920 C.2   139  ASN139      0.2292
    159  O         21.8490   28.9030   75.1680 O.2   139  ASN139     -0.2864
    160  CB        24.5220   29.7510   74.7780 C.3   139  ASN139      0.1181
    161  CG        25.4470   30.7450   74.1270 C.2   139  ASN139      0.2629
    162  OD1       25.0040   31.7930   73.6610 O.2   139  ASN139     -0.2716
    163  ND2       26.7400   30.4200   74.0750 N.am  139  ASN139     -0.0877
    164  N         18.6240   29.0780   77.9380 N.3   141  LEU141     -0.1245
    165  CA        17.5020   29.8550   78.4500 C.3   141  LEU141      0.1561
    166  C         16.6690   29.0110   79.3980 C.2   141  LEU141      0.2260
    167  O         16.5670   27.7980   79.2310 O.2   141  LEU141     -0.2867
    168  CB        16.6380   30.3640   77.2860 C.3   141  LEU141      0.0270
    169  CG        17.3300   31.3630   76.3490 C.3   141  LEU141      0.0019
    170  CD1       16.4860   31.6230   75.1060 C.3   141  LEU141      0.0001
    171  CD2       17.5700   32.6500   77.0930 C.3   141  LEU141      0.0001
    172  N         20.3130   27.3480   73.1130 N.3   151  SER151     -0.1202
    173  CA        20.0460   28.3840   72.1320 C.3   151  SER151      0.2020
    174  C         21.3470   28.8560   71.5130 C.2   151  SER151      0.2618
    175  O         22.4020   28.2530   71.7200 O.2   151  SER151     -0.2717
    176  CB        19.3280   29.5720   72.7750 C.3   151  SER151      0.2103
    177  OG        20.1720   30.2220   73.7040 O.3   151  SER151     -0.2182
    178  N         21.2620   29.9410   70.7580 N.am  152  ASP152     -0.1973
    179  CA        22.4160   30.5100   70.0930 C.3   152  ASP152      0.1709
    180  C         22.9360   29.6300   68.9620 C.2   152  ASP152      0.2293
    181  O         23.7520   28.7340   69.1620 O.2   152  ASP152     -0.2864
    182  CB        23.5340   30.7920   71.0910 C.3   152  ASP152      0.1436
    183  CG        24.5590   31.7550   70.5360 C.2   152  ASP152      0.3671
    184  OD1       25.2490   31.3940   69.5570 O.co2 152  ASP152     -0.2456
    185  OD2       24.6600   32.8840   71.0660 O.co2 152  ASP152     -0.2456
@<TRIPOS>BOND
     1    63    64    1
     2    65    64    1
     3    65    66    2
     4    67    64    1
     5    67    68    1
     6    74    75    1
     7    70    68   ar
     8    70    72   ar
     9    68    69   ar
    10    72    73   ar
    11    76    75    1
    12    76    77    2
    13    75    78    1
    14    39    41   ar
    15    39    37   ar
    16    69    71   ar
    17    41    40   ar
    18    37    36   ar
    19    73    71   ar
    20    78    79    1
    21    40    38   ar
    22    36    38   ar
    23    36    35    1
    24    79    80    1
    25    35    32    1
    26    34    33    2
    27    57    56    2
    28    32    33    1
    29    32    31    1
    30    81    80   ar
    31    80    82   ar
    32    56    55    1
    33    31    24   am
    34    25    24    2
    35    58    55    1
    36    58    59    1
    37    97    95    1
    38    24    23    1
    39    91    92    1
    40    55    54    1
    41   180   181    2
    42   180   179    1
    43    86    85    2
    44    92    95    1
    45    92    93    1
    46    62    61    1
    47    26    23    1
    48    26    27    1
    49   184   183   ar
    50    60    61    1
    51    60    59    1
    52    95    96    1
    53    23    22    1
    54    52    51    2
    55   179   178    1
    56   179   182    1
    57    85    84    1
    58    93    94    2
    59    93    98   am
    60   183   185   ar
    61   183   182    1
    62    22    20   am
    63    27    28    1
    64   178   174   am
    65    21    20    2
    66    51    50    1
    67    89    87    1
    68    20    19    1
    69    98    99    1
    70    29    28   ar
    71    87    84    1
    72    87    88    1
    73    28    30   ar
    74   174   175    2
    75   174   173    1
    76    84    83    1
    77    19    18    1
    78   173   176    1
    79   173   172    1
    80    49    50    1
    81    99   102    1
    82    99   100    1
    83    50    53    1
    84    42    43    1
    85    43    44    1
    86    43    46    1
    87    48    46    1
    88    18    15   am
    89    88    90    1
    90   176   177    1
    91   102   103    1
    92   106   104   ar
    93   103   104    1
    94    44    45    2
    95    46    47    1
    96   100   101    2
    97   100   107   am
    98   104   105   ar
    99   162   161    2
   100    15    14    1
   101    15    16    2
   102   163   161   am
   103   161   160    1
   104   107   108    1
   105    14    17    1
   106    14    13    1
   107   160   157    1
   108   155   153    1
   109    12    11    2
   110   170   169    1
   111   159   158    2
   112   108   111    1
   113   108   109    1
   114    13    11   am
   115    11    10    1
   116   157   158    1
   117   157   156    1
   118   152   153    2
   119   152   151    1
   120   111   112    1
   121   153   154    1
   122   169   171    1
   123   169   168    1
   124   113   112   ar
   125   113   115   ar
   126   109   110    2
   127   109   118   am
   128     1     2    1
   129   123   124    1
   130   123   122    1
   131    10     9    1
   132     9     3   am
   133     6     8    1
   134     6     5    1
   135   112   114   ar
   136   156   147   am
   137   151   150    1
   138   124   125    1
   139   168   165    1
   140   118   119    1
   141   148   147    2
   142   115   117   ar
   143   150   149    1
   144   147   146    1
   145   164   165    1
   146     2     3    1
   147     2     5    1
   148     3     4    2
   149   122   119    1
   150     5     7    1
   151   114   116   ar
   152   119   120    1
   153   165   166    1
   154   149   146    1
   155   144   143    1
   156   117   116   ar
   157   146   145    1
   158   167   166    2
   159   120   121    2
   160   120   126   am
   161   143   140    1
   162   139   140    1
   163   139   137   am
   164   140   141    1
   165   126   127    1
   166   136   137    1
   167   136   135    1
   168   137   138    2
   169   127   128    1
   170   127   130    1
   171   141   142    2
   172   128   129    2
   173   130   131    1
   174   131   132    1
   175   134   132   ar
   176   132   133   ar
