@<TRIPOS>MOLECULE
tmp/2hf9A00.pdb
 142 133 0 0 0
SMALL
GASTEIGER

@<TRIPOS>ATOM
      1  N         -2.2580   19.7860  -22.2510 N.3    32  ILE32      -0.1231
      2  CA        -3.5460   20.1580  -22.8400 C.3    32  ILE32       0.1692
      3  C         -3.4290   20.1700  -24.3650 C.2    32  ILE32       0.2593
      4  O         -2.5730   20.8590  -24.9250 O.2    32  ILE32      -0.2718
      5  CB        -4.0430   21.5430  -22.3530 C.3    32  ILE32       0.0266
      6  CG1       -4.2300   21.5690  -20.8270 C.3    32  ILE32       0.0019
      7  CG2       -5.3330   21.9420  -23.0820 C.3    32  ILE32       0.0020
      8  CD1       -5.5340   20.9530  -20.3210 C.3    32  ILE32       0.0001
      9  N         -4.2790   19.3800  -25.0190 N.am   33  GLY33      -0.1942
     10  CA        -4.3680   19.3530  -26.4740 C.3    33  GLY33       0.2014
     11  C         -3.2040   18.7050  -27.1990 C.2    33  GLY33       0.2640
     12  O         -3.0090   18.9500  -28.3860 O.2    33  GLY33      -0.2714
     13  N         -2.4350   17.8740  -26.4940 N.am   34  SER34      -0.1935
     14  CA        -1.2740   17.1970  -27.0850 C.3    34  SER34       0.2055
     15  C         -1.6470   16.2360  -28.2190 C.2    34  SER34       0.2644
     16  O         -0.8470   16.0050  -29.1290 O.2    34  SER34      -0.2714
     17  CB        -0.4910   16.4380  -26.0130 C.3    34  SER34       0.2130
     18  OG         0.0820   17.3300  -25.0740 O.3    34  SER34      -0.2179
     19  N         -2.8540   15.6740  -28.1480 N.am   35  GLY35      -0.1939
     20  CA        -3.3440   14.7560  -29.1790 C.3    35  GLY35       0.2014
     21  C         -3.8060   13.3980  -28.6740 C.2    35  GLY35       0.2639
     22  O         -3.9100   12.4590  -29.4610 O.2    35  GLY35      -0.2714
     23  N         -4.1090   13.3020  -27.3760 N.am   36  LYS36      -0.1963
     24  CA        -4.5170   12.0350  -26.7460 C.3    36  LYS36       0.1728
     25  C         -5.7510   11.4310  -27.4130 C.2    36  LYS36       0.2617
     26  O         -5.7690   10.2470  -27.7510 O.2    36  LYS36      -0.2715
     27  CB        -4.7940   12.2230  -25.2440 C.3    36  LYS36       0.0311
     28  CG        -3.6220   12.7480  -24.4150 C.3    36  LYS36       0.0038
     29  CD        -3.9590   12.8070  -22.9080 C.3    36  LYS36       0.0206
     30  CE        -4.9340   13.9380  -22.5520 C.3    36  LYS36       0.1093
     31  NZ        -4.4570   15.2710  -23.0140 N.3    36  LYS36      -0.1314
     32  N         -6.7860   12.2460  -27.5940 N.am   37  THR37      -0.1937
     33  CA        -8.0420   11.7520  -28.1640 C.3    37  THR37       0.2028
     34  C         -7.8650   11.3320  -29.6160 C.2    37  THR37       0.2642
     35  O         -8.3010   10.2490  -30.0000 O.2    37  THR37      -0.2714
     36  CB        -9.1850   12.7620  -28.0240 C.3    37  THR37       0.1808
     37  OG1       -9.3710   13.0650  -26.6370 O.3    37  THR37      -0.2208
     38  CG2      -10.4860   12.1800  -28.5770 C.3    37  THR37       0.0379
     39  N         -7.2060   12.1740  -30.4100 N.am   38  LEU38      -0.1977
     40  CA        -6.9420   11.8360  -31.8060 C.3    38  LEU38       0.1596
     41  C         -6.1300   10.5430  -31.9340 C.2    38  LEU38       0.2287
     42  O         -6.4020    9.7260  -32.8110 O.2    38  LEU38      -0.2864
     43  CB        -6.2590   12.9910  -32.5390 C.3    38  LEU38       0.0297
     44  CG        -6.1900   12.9020  -34.0720 C.3    38  LEU38       0.0022
     45  CD1       -7.5520   12.6090  -34.7100 C.3    38  LEU38       0.0001
     46  CD2       -5.5950   14.1830  -34.6430 C.3    38  LEU38       0.0001
     47  N        -12.3180   13.9930  -17.9880 N.3    59  ASP59      -0.1239
     48  CA       -12.0180   15.4240  -18.0970 C.3    59  ASP59       0.1674
     49  C        -13.0830   16.2040  -17.3370 C.2    59  ASP59       0.2266
     50  O        -14.0690   15.6190  -16.8960 O.2    59  ASP59      -0.2867
     51  CB       -11.9610   15.8670  -19.5630 C.3    59  ASP59       0.1410
     52  CG       -11.1970   17.1730  -19.7590 C.2    59  ASP59       0.3668
     53  OD1      -10.5260   17.6550  -18.8170 O.co2  59  ASP59      -0.2456
     54  OD2      -11.2740   17.7290  -20.8680 O.co2  59  ASP59      -0.2456
     55  N        -14.7920   14.2760  -25.4120 N.3    65  ASP65      -0.1239
     56  CA       -13.9390   13.1770  -25.8560 C.3    65  ASP65       0.1674
     57  C        -14.6510   11.8340  -25.8600 C.2    65  ASP65       0.2266
     58  O        -14.3540   10.9810  -26.6990 O.2    65  ASP65      -0.2867
     59  CB       -12.6670   13.1170  -25.0210 C.3    65  ASP65       0.1410
     60  CG       -11.7710   14.3150  -25.2550 C.2    65  ASP65       0.3668
     61  OD1      -12.0610   15.1310  -26.1600 O.co2  65  ASP65      -0.2456
     62  OD2      -10.7610   14.4370  -24.5440 O.co2  65  ASP65      -0.2456
     63  N        -16.4840   11.6230  -29.1290 N.3    68  ARG68      -0.1245
     64  CA       -15.4990   11.3440  -30.1830 C.3    68  ARG68       0.1563
     65  C        -15.1290    9.8620  -30.2480 C.2    68  ARG68       0.2260
     66  O        -15.1140    9.2750  -31.3270 O.2    68  ARG68      -0.2867
     67  CB       -14.2480   12.2200  -30.0220 C.3    68  ARG68       0.0307
     68  CG       -14.3920   13.6080  -30.6390 C.3    68  ARG68       0.0489
     69  CD       -13.2530   14.5490  -30.2610 C.3    68  ARG68       0.2205
     70  NE       -11.9880   14.2130  -30.9200 N.pl3  68  ARG68      -0.0865
     71  CZ       -10.8470   14.8780  -30.7470 C.cat  68  ARG68       0.5346
     72  NH1      -10.7890   15.9250  -29.9340 N.pl3  68  ARG68       0.1354
     73  NH2       -9.7520   14.4870  -31.3860 N.pl3  68  ARG68       0.1354
     74  N         -8.1630    7.8320  -21.1990 N.3   110  GLU110     -0.1245
     75  CA        -7.6440    9.1820  -21.3820 C.3   110  GLU110      0.1567
     76  C         -7.6840    9.9380  -20.0660 C.2   110  GLU110      0.2260
     77  O         -8.7540   10.2980  -19.5710 O.2   110  GLU110     -0.2867
     78  CB        -8.3800    9.9610  -22.4720 C.3   110  GLU110      0.0388
     79  CG        -7.7320   11.3150  -22.7380 C.3   110  GLU110      0.1160
     80  CD        -8.2480   11.9970  -23.9800 C.2   110  GLU110      0.3649
     81  OE1       -8.7940   11.3080  -24.8590 O.co2 110  GLU110     -0.2457
     82  OE2       -8.1170   13.2350  -24.0830 O.co2 110  GLU110     -0.2457
     83  N         -5.7040   16.2760  -18.8990 N.3   113  GLY113     -0.1225
     84  CA        -4.5450   16.9560  -19.4890 C.3   113  GLY113      0.1811
     85  C         -3.7710   17.7690  -18.4690 C.2   113  GLY113      0.2280
     86  O         -4.1980   18.8550  -18.0800 O.2   113  GLY113     -0.2866
     87  N          4.2680   14.2890  -30.4350 N.3   157  ASN157     -0.1225
     88  CA         3.2560   14.4300  -31.4710 C.3   157  ASN157      0.1785
     89  C          3.3650   15.7850  -32.1830 C.2   157  ASN157      0.2597
     90  O          4.1210   16.6650  -31.7490 O.2   157  ASN157     -0.2718
     91  CB         1.8530   14.2290  -30.8590 C.3   157  ASN157      0.1169
     92  CG         0.7540   14.1060  -31.9050 C.2   157  ASN157      0.2627
     93  OD1       -0.3590   14.6170  -31.7120 O.2   157  ASN157     -0.2716
     94  ND2        1.0510   13.4360  -33.0120 N.am  157  ASN157     -0.0877
     95  N          2.6120   15.9320  -33.2740 N.am  158  LYS158     -0.1980
     96  CA         2.5650   17.1570  -34.0900 C.3   158  LYS158      0.1596
     97  C          3.9230   17.5080  -34.7010 C.2   158  LYS158      0.2287
     98  O          4.2760   18.6840  -34.7960 O.2   158  LYS158     -0.2864
     99  CB         2.0060   18.3520  -33.2930 C.3   158  LYS158      0.0298
    100  CG         0.6130   18.1370  -32.7080 C.3   158  LYS158      0.0038
    101  CD         0.0960   19.3970  -32.0200 C.3   158  LYS158      0.0206
    102  CE        -1.0640   19.0710  -31.0980 C.3   158  LYS158      0.1093
    103  NZ        -1.1870   20.1000  -30.0110 N.3   158  LYS158     -0.1314
    104  N          4.6950   17.5350  -37.6350 N.3   160  ASP160     -0.1225
    105  CA         4.4150   18.3320  -38.8270 C.3   160  ASP160      0.1805
    106  C          4.4120   19.8450  -38.5580 C.2   160  ASP160      0.2597
    107  O          4.4900   20.6420  -39.4930 O.2   160  ASP160     -0.2718
    108  CB         3.1070   17.8780  -39.4900 C.3   160  ASP160      0.1424
    109  CG         1.9000   18.0010  -38.5700 C.2   160  ASP160      0.3668
    110  OD1        1.7820   17.2100  -37.6050 O.co2 160  ASP160     -0.2456
    111  OD2        1.0550   18.8830  -38.8250 O.co2 160  ASP160     -0.2456
    112  N          4.3540   20.2300  -37.2840 N.am  161  LEU161     -0.1979
    113  CA         4.2770   21.6470  -36.9000 C.3   161  LEU161      0.1596
    114  C          5.5520   22.1870  -36.2390 C.2   161  LEU161      0.2287
    115  O          5.5830   23.3400  -35.8010 O.2   161  LEU161     -0.2864
    116  CB         3.0770   21.8820  -35.9710 C.3   161  LEU161      0.0297
    117  CG         1.7090   21.3910  -36.4470 C.3   161  LEU161      0.0022
    118  CD1        0.6690   21.5650  -35.3560 C.3   161  LEU161      0.0001
    119  CD2        1.2810   22.1060  -37.7140 C.3   161  LEU161      0.0001
    120  N          3.2070   12.2440  -36.1780 N.3   189  SER189     -0.1202
    121  CA         2.2300   13.2040  -36.6550 C.3   189  SER189      0.2020
    122  C          0.9310   12.4600  -36.9140 C.2   189  SER189      0.2619
    123  O          0.8930   11.5450  -37.7380 O.2   189  SER189     -0.2717
    124  CB         2.6890   13.8900  -37.9400 C.3   189  SER189      0.2103
    125  OG         1.6340   14.6820  -38.4660 O.3   189  SER189     -0.2182
    126  N         -0.1250   12.8470  -36.2040 N.am  190  LEU190     -0.1965
    127  CA        -1.4490   12.2790  -36.4400 C.3   190  LEU190      0.1728
    128  C         -2.1420   12.9110  -37.6470 C.2   190  LEU190      0.2616
    129  O         -3.2490   12.5100  -38.0120 O.2   190  LEU190     -0.2715
    130  CB        -2.3140   12.3850  -35.1810 C.3   190  LEU190      0.0311
    131  CG        -1.8850   11.4290  -34.0580 C.3   190  LEU190      0.0022
    132  CD1       -2.5030   11.8270  -32.7310 C.3   190  LEU190      0.0001
    133  CD2       -2.2140    9.9620  -34.4100 C.3   190  LEU190      0.0001
    134  N         -1.4890   13.9040  -38.2520 N.am  191  LYS191     -0.1977
    135  CA        -1.9600   14.5090  -39.5000 C.3   191  LYS191      0.1596
    136  C         -1.4330   13.7210  -40.7080 C.2   191  LYS191      0.2287
    137  O         -2.2140   13.2810  -41.5460 O.2   191  LYS191     -0.2864
    138  CB        -1.5450   15.9830  -39.5720 C.3   191  LYS191      0.0298
    139  CG        -2.0690   16.7480  -40.7830 C.3   191  LYS191      0.0038
    140  CD        -1.7830   18.2410  -40.6170 C.3   191  LYS191      0.0206
    141  CE        -2.5450   19.0940  -41.6200 C.3   191  LYS191      0.1093
    142  NZ        -2.4140   20.5420  -41.2720 N.3   191  LYS191     -0.1314
@<TRIPOS>BOND
     1   141   142    1
     2   141   140    1
     3   137   136    2
     4   139   140    1
     5   139   138    1
     6   136   135    1
     7   138   135    1
     8   135   134    1
     9   107   106    2
    10   108   105    1
    11   108   109    1
    12   105   106    1
    13   105   104    1
    14   111   109   ar
    15   109   110   ar
    16   106   112   am
    17   125   124    1
    18   134   128   am
    19   129   128    2
    20   124   121    1
    21   123   122    2
    22   119   117    1
    23   128   127    1
    24   112   113    1
    25   122   121    1
    26   122   126   am
    27   113   114    1
    28   113   116    1
    29   121   120    1
    30   117   116    1
    31   117   118    1
    32   127   126    1
    33   127   130    1
    34   114   115    2
    35   130   131    1
    36    98    97    2
    37    45    44    1
    38    97    96    1
    39    46    44    1
    40   133   131    1
    41    96    99    1
    42    96    95    1
    43    44    43    1
    44   131   132    1
    45    99   100    1
    46    95    89   am
    47    94    92   am
    48    42    41    2
    49   100   101    1
    50    43    40    1
    51    89    90    2
    52    89    88    1
    53   101   102    1
    54    41    40    1
    55    92    93    2
    56    92    91    1
    57    40    39    1
    58    88    91    1
    59    88    87    1
    60    73    71    1
    61    66    65    2
    62   102   103    1
    63    70    71    2
    64    70    69    1
    65    71    72    1
    66    68    69    1
    67    68    67    1
    68    39    34   am
    69    65    64    1
    70    64    67    1
    71    64    63    1
    72    35    34    2
    73    34    33    1
    74    22    21    2
    75    20    21    1
    76    20    19    1
    77    16    15    2
    78    21    23   am
    79    38    36    1
    80    12    11    2
    81    15    19   am
    82    15    14    1
    83    33    36    1
    84    33    32    1
    85    36    37    1
    86    26    25    2
    87    32    25   am
    88    25    24    1
    89    23    24    1
    90    11    13   am
    91    11    10    1
    92    14    13    1
    93    14    17    1
    94    24    27    1
    95    58    57    2
    96    10     9    1
    97    61    60   ar
    98    17    18    1
    99    57    56    1
   100    56    55    1
   101    56    59    1
   102    60    59    1
   103    60    62   ar
   104    27    28    1
   105     9     3   am
   106     4     3    2
   107    81    80   ar
   108    28    29    1
   109     3     2    1
   110    82    80   ar
   111    80    79    1
   112     7     5    1
   113    31    30    1
   114    29    30    1
   115     2     5    1
   116     2     1    1
   117    79    78    1
   118    78    75    1
   119     5     6    1
   120    75    74    1
   121    75    76    1
   122    54    52   ar
   123     6     8    1
   124    76    77    2
   125    52    51    1
   126    52    53   ar
   127    51    48    1
   128    84    83    1
   129    84    85    1
   130    85    86    2
   131    48    47    1
   132    48    49    1
   133    49    50    2
