@<TRIPOS>MOLECULE
tmp/2hf9A01.pdb
 75 72 0 0 0
SMALL
GASTEIGER

@<TRIPOS>ATOM
      1  N          4.1820   21.7490  -30.3830 N.3   135  THR135     -0.1203
      2  CA         3.5950   23.0830  -30.2340 C.3   135  THR135      0.1994
      3  C          3.6130   23.6330  -28.8040 C.2   135  THR135      0.2618
      4  O          3.3050   24.8070  -28.5850 O.2   135  THR135     -0.2717
      5  CB         2.1710   23.1590  -30.8250 C.3   135  THR135      0.1784
      6  OG1        1.3100   22.2150  -30.1690 O.3   135  THR135     -0.2211
      7  CG2        2.2040   22.8720  -32.3150 C.3   135  THR135      0.0376
      8  N          3.9740   22.7810  -27.8480 N.am  136  GLU136     -0.1965
      9  CA         4.1570   23.1860  -26.4540 C.3   136  GLU136      0.1733
     10  C          5.5730   23.7360  -26.2230 C.2   136  GLU136      0.2617
     11  O          5.8670   24.2950  -25.1690 O.2   136  GLU136     -0.2715
     12  CB         3.8800   22.0030  -25.5220 C.3   136  GLU136      0.0429
     13  CG         2.4220   21.5230  -25.5370 C.3   136  GLU136      0.1163
     14  CD         2.2850   20.0050  -25.5770 C.2   136  GLU136      0.3649
     15  OE1        3.1750   19.2950  -25.0550 O.co2 136  GLU136     -0.2457
     16  OE2        1.2730   19.5210  -26.1300 O.co2 136  GLU136     -0.2457
     17  N          6.4410   23.5750  -27.2190 N.am  137  GLY137     -0.1940
     18  CA         7.8400   23.9860  -27.1070 C.3   137  GLY137      0.2014
     19  C          8.7510   22.7950  -26.8880 C.2   137  GLY137      0.2638
     20  O          8.3330   21.7700  -26.3320 O.2   137  GLY137     -0.2714
     21  N         10.0030   22.9250  -27.3170 N.am  138  ASP138     -0.1971
     22  CA        10.9470   21.8100  -27.2360 C.3   138  ASP138      0.1709
     23  C         11.6670   21.6620  -25.8850 C.2   138  ASP138      0.2293
     24  O         12.5700   20.8360  -25.7570 O.2   138  ASP138     -0.2864
     25  CB        11.9410   21.8350  -28.4110 C.3   138  ASP138      0.1436
     26  CG        12.8000   23.0860  -28.4410 C.2   138  ASP138      0.3671
     27  OD1       12.8700   23.8120  -27.4260 O.co2 138  ASP138     -0.2456
     28  OD2       13.4140   23.3350  -29.4960 O.co2 138  ASP138     -0.2456
     29  N          9.6660   21.1710  -23.1880 N.3   140  THR140     -0.1218
     30  CA         8.5690   20.5330  -22.4560 C.3   140  THR140      0.1862
     31  C          8.9530   19.2250  -21.7540 C.2   140  THR140      0.2287
     32  O          8.5150   18.9660  -20.6270 O.2   140  THR140     -0.2866
     33  CB         7.3580   20.3250  -23.3960 C.3   140  THR140      0.1770
     34  OG1        6.9220   21.6050  -23.8710 O.3   140  THR140     -0.2211
     35  CG2        6.2020   19.6450  -22.6770 C.3   140  THR140      0.0375
     36  N         11.5040   20.0830  -18.8870 N.3   143  LYS143     -0.1231
     37  CA        10.7950   20.8650  -17.8710 C.3   143  LYS143      0.1693
     38  C          9.8870   20.0260  -16.9750 C.2   143  LYS143      0.2592
     39  O          9.4310   20.5060  -15.9350 O.2   143  LYS143     -0.2718
     40  CB         9.9560   21.9640  -18.5240 C.3   143  LYS143      0.0285
     41  CG        10.6640   23.2880  -18.7170 C.3   143  LYS143      0.0035
     42  CD         9.8010   24.2150  -19.5710 C.3   143  LYS143      0.0206
     43  CE        10.0820   25.6780  -19.2930 C.3   143  LYS143      0.1093
     44  NZ         9.0620   26.3000  -18.4010 N.3   143  LYS143     -0.1314
     45  N          9.6010   18.7890  -17.3810 N.am  144  HIS144     -0.1976
     46  CA         8.7180   17.9170  -16.6010 C.3   144  HIS144      0.1656
     47  C          9.2550   16.4830  -16.5060 C.2   144  HIS144      0.2291
     48  O          8.5760   15.5420  -16.9260 O.2   144  HIS144     -0.2864
     49  CB         7.2950   17.9200  -17.1850 C.3   144  HIS144      0.0771
     50  CG         6.7350   19.2900  -17.4170 C.ar  144  HIS144      0.0820
     51  ND1        5.9630   19.9460  -16.4820 N.ar  144  HIS144     -0.2267
     52  CD2        6.8300   20.1250  -18.4800 C.ar  144  HIS144      0.1154
     53  CE1        5.6140   21.1290  -16.9560 C.ar  144  HIS144      0.1986
     54  NE2        6.1270   21.2640  -18.1650 N.ar  144  HIS144     -0.2212
     55  N          7.2300   25.3950  -37.5670 N.3   164  ALA164     -0.1231
     56  CA         6.3700   26.5640  -37.3950 C.3   164  ALA164      0.1694
     57  C          6.4070   27.1490  -35.9780 C.2   164  ALA164      0.2592
     58  O          6.1210   28.3280  -35.7930 O.2   164  ALA164     -0.2718
     59  CB         4.9390   26.2370  -37.8200 C.3   164  ALA164      0.0304
     60  N          6.7590   26.3230  -34.9920 N.am  165  VAL165     -0.1966
     61  CA         6.9580   26.7750  -33.6060 C.3   165  VAL165      0.1727
     62  C          8.4330   26.9330  -33.2390 C.2   165  VAL165      0.2617
     63  O          8.7610   27.4450  -32.1620 O.2   165  VAL165     -0.2715
     64  CB         6.2940   25.8190  -32.5660 C.3   165  VAL165      0.0290
     65  CG1        4.7890   25.9700  -32.5840 C.3   165  VAL165      0.0023
     66  CG2        6.7000   24.3680  -32.8090 C.3   165  VAL165      0.0023
     67  N          9.3150   26.4840  -34.1260 N.am  166  GLY166     -0.1940
     68  CA        10.7550   26.5330  -33.8820 C.3   166  GLY166      0.2014
     69  C         11.2330   25.4460  -32.9350 C.2   166  GLY166      0.2638
     70  O         12.2560   25.6080  -32.2660 O.2   166  GLY166     -0.2714
     71  N         10.4940   24.3360  -32.8830 N.am  167  ALA167     -0.1977
     72  CA        10.8300   23.2130  -32.0060 C.3   167  ALA167      0.1597
     73  C         11.8140   22.2570  -32.6700 C.2   167  ALA167      0.2287
     74  O         11.6610   21.9110  -33.8390 O.2   167  ALA167     -0.2864
     75  CB         9.5700   22.4690  -31.5820 C.3   167  ALA167      0.0319
@<TRIPOS>BOND
     1    59    56    1
     2    55    56    1
     3    56    57    1
     4    57    58    2
     5    57    60   am
     6    60    61    1
     7    67    68    1
     8    67    62   am
     9    68    69    1
    10    74    73    2
    11    61    62    1
    12    61    64    1
    13    62    63    2
    14    69    71   am
    15    69    70    2
    16    71    72    1
    17    66    64    1
    18    73    72    1
    19    65    64    1
    20     7     5    1
    21    72    75    1
    22     5     2    1
    23     5     6    1
    24     1     2    1
    25     2     3    1
    26    28    26   ar
    27     3     4    2
    28     3     8   am
    29    26    25    1
    30    26    27   ar
    31    25    22    1
    32     8     9    1
    33    21    22    1
    34    21    19   am
    35    22    23    1
    36    17    18    1
    37    17    10   am
    38    18    19    1
    39    19    20    2
    40     9    10    1
    41     9    12    1
    42    10    11    2
    43    16    14   ar
    44    23    24    2
    45    14    13    1
    46    14    15   ar
    47    13    12    1
    48    34    33    1
    49    33    35    1
    50    33    30    1
    51    29    30    1
    52    30    31    1
    53    31    32    2
    54    42    43    1
    55    42    41    1
    56    43    44    1
    57    36    37    1
    58    41    40    1
    59    40    37    1
    60    52    54   ar
    61    52    50   ar
    62    54    53   ar
    63    37    38    1
    64    50    49    1
    65    50    51   ar
    66    45    38   am
    67    45    46    1
    68    49    46    1
    69    38    39    2
    70    53    51   ar
    71    48    47    2
    72    46    47    1
