@<TRIPOS>MOLECULE
tmp/2hfjA00.pdb
 147 138 0 0 0
SMALL
GASTEIGER

@<TRIPOS>ATOM
      1  N         31.4150   51.1560   14.2160 N.3    17  TYR17      -0.1241
      2  CA        32.7180   50.6000   14.5900 C.3    17  TYR17       0.1605
      3  C         33.5380   51.5730   15.4420 C.2    17  TYR17       0.2264
      4  O         34.0880   51.1910   16.4780 O.2    17  TYR17      -0.2867
      5  CB        33.4650   50.2300   13.3100 C.3    17  TYR17       0.0534
      6  CG        34.8710   49.7110   13.4640 C.ar   17  TYR17      -0.0201
      7  CD1       35.9700   50.5680   13.4040 C.ar   17  TYR17      -0.0009
      8  CD2       35.1070   48.3560   13.6090 C.ar   17  TYR17      -0.0009
      9  CE1       37.2720   50.0700   13.5200 C.ar   17  TYR17       0.0417
     10  CE2       36.3960   47.8540   13.7250 C.ar   17  TYR17       0.0417
     11  CZ        37.4650   48.6990   13.6810 C.ar   17  TYR17       0.1957
     12  OH        38.7240   48.1530   13.7960 O.3    17  TYR17      -0.2866
     13  N         34.8150   51.0430   19.3440 N.3    21  LEU21      -0.1245
     14  CA        36.2320   51.1090   19.7070 C.3    21  LEU21       0.1561
     15  C         36.4710   51.9620   20.9430 C.2    21  LEU21       0.2260
     16  O         37.3000   51.6080   21.7960 O.2    21  LEU21      -0.2867
     17  CB        37.0870   51.6280   18.5410 C.3    21  LEU21       0.0270
     18  CG        37.8630   50.6220   17.6920 C.3    21  LEU21       0.0019
     19  CD1       38.8570   51.3760   16.8300 C.3    21  LEU21       0.0001
     20  CD2       38.5870   49.5890   18.5620 C.3    21  LEU21       0.0001
     21  N         47.6300   45.6420   16.2690 N.3    67  THR67      -0.1203
     22  CA        46.6920   45.7060   17.3870 C.3    67  THR67       0.1994
     23  C         45.4460   44.8150   17.1630 C.2    67  THR67       0.2617
     24  O         44.6460   44.6160   18.1020 O.2    67  THR67      -0.2717
     25  CB        46.1880   47.1640   17.5960 C.3    67  THR67       0.1784
     26  OG1       45.6040   47.6050   16.3790 O.3    67  THR67      -0.2211
     27  CG2       47.3440   48.1120   17.8970 C.3    67  THR67       0.0376
     28  N         45.2690   44.2980   15.9500 N.am   68  ALA68      -0.1979
     29  CA        44.0340   43.5550   15.6150 C.3    68  ALA68       0.1597
     30  C         43.7770   42.4060   16.5780 C.2    68  ALA68       0.2287
     31  O         44.6700   41.5910   16.8460 O.2    68  ALA68      -0.2864
     32  CB        44.0420   43.0760   14.1850 C.3    68  ALA68       0.0319
     33  N         52.3840   46.9040   10.0660 N.3   134  HIS134     -0.1226
     34  CA        51.3160   47.1040    9.0940 C.3   134  HIS134      0.1752
     35  C         50.1060   47.6950    9.8460 C.2   134  HIS134      0.2597
     36  O         49.7320   47.2080   10.9100 O.2   134  HIS134     -0.2718
     37  CB        50.9270   45.7810    8.4230 C.3   134  HIS134      0.0759
     38  CG        49.7070   45.8630    7.5370 C.ar  134  HIS134      0.0818
     39  ND1       48.6370   45.0050    7.6750 N.ar  134  HIS134     -0.2268
     40  CD2       49.3980   46.6740    6.4980 C.ar  134  HIS134      0.1154
     41  CE1       47.7230   45.2870    6.7630 C.ar  134  HIS134      0.1986
     42  NE2       48.1660   46.2890    6.0280 N.ar  134  HIS134     -0.2212
     43  N         49.5420   48.7690    9.2910 N.am  135  SER135     -0.1938
     44  CA        48.3740   49.4530    9.8710 C.3   135  SER135      0.2055
     45  C         48.6280   49.9490   11.2980 C.2   135  SER135      0.2643
     46  O         49.5620   50.7220   11.5080 O.2   135  SER135     -0.2714
     47  CB        47.1360   48.5550    9.7470 C.3   135  SER135      0.2130
     48  OG        45.9960   49.4290    9.9380 O.3   135  SER135     -0.2179
     49  N         47.8020   49.5310   12.2680 N.am  136  GLY136     -0.1954
     50  CA        48.0630   49.7920   13.6860 C.3   136  GLY136      0.1869
     51  C         49.5120   49.4450   14.1040 C.2   136  GLY136      0.2309
     52  O         50.1380   50.1630   14.8930 O.2   136  GLY136     -0.2863
     53  N         51.9760   52.1840   13.0440 N.3   139  LEU139     -0.1245
     54  CA        52.0100   53.2280   14.1000 C.3   139  LEU139      0.1561
     55  C         52.8260   52.7980   15.3190 C.2   139  LEU139      0.2260
     56  O         53.5950   53.5880   15.8700 O.2   139  LEU139     -0.2867
     57  CB        50.5930   53.6580   14.5280 C.3   139  LEU139      0.0270
     58  CG        49.6470   54.0460   13.3740 C.3   139  LEU139      0.0019
     59  CD1       48.2500   54.4680   13.9490 C.3   139  LEU139      0.0001
     60  CD2       50.2130   55.1170   12.4330 C.3   139  LEU139      0.0001
     61  N         47.9550   54.9490    8.7950 N.3   165  TYR165     -0.1241
     62  CA        47.0110   56.0850    8.7730 C.3   165  TYR165      0.1605
     63  C         47.1660   56.8050   10.0990 C.2   165  TYR165      0.2264
     64  O         46.5290   56.4340   11.0930 O.2   165  TYR165     -0.2867
     65  CB        45.5550   55.5970    8.5530 C.3   165  TYR165      0.0534
     66  CG        45.3050   55.2540    7.1180 C.ar  165  TYR165     -0.0201
     67  CD1       45.5660   53.9720    6.6260 C.ar  165  TYR165     -0.0009
     68  CD2       44.8620   56.2200    6.2360 C.ar  165  TYR165     -0.0009
     69  CE1       45.3600   53.6660    5.3090 C.ar  165  TYR165      0.0417
     70  CE2       44.6610   55.9410    4.9340 C.ar  165  TYR165      0.0417
     71  CZ        44.9090   54.6580    4.4590 C.ar  165  TYR165      0.1957
     72  OH        44.6980   54.4020    3.1370 O.3   165  TYR165     -0.2866
     73  N         43.0030   60.3020    9.0100 N.3   170  GLN170     -0.1245
     74  CA        42.1740   59.1390    9.2910 C.3   170  GLN170      0.1566
     75  C         40.7810   59.1790    8.6460 C.2   170  GLN170      0.2260
     76  O         39.9390   58.3250    8.9220 O.2   170  GLN170     -0.2867
     77  CB        42.1850   58.8170   10.7940 C.3   170  GLN170      0.0367
     78  CG        43.5070   58.1120   11.1940 C.3   170  GLN170      0.0905
     79  CD        43.7500   58.0610   12.6740 C.2   170  GLN170      0.2608
     80  OE1       43.0370   58.6890   13.4700 O.2   170  GLN170     -0.2717
     81  NE2       44.7750   57.3010   13.0680 N.am  170  GLN170     -0.0878
     82  N         39.9440   55.8540    7.1320 N.3   173  ILE173     -0.1245
     83  CA        39.6250   54.9390    8.2340 C.3   173  ILE173      0.1561
     84  C         38.1800   55.0700    8.6920 C.2   173  ILE173      0.2260
     85  O         37.5060   54.0620    8.9790 O.2   173  ILE173     -0.2867
     86  CB        40.5540   55.2120    9.4820 C.3   173  ILE173      0.0252
     87  CG1       42.0180   55.0130    9.1150 C.3   173  ILE173      0.0019
     88  CG2       40.1790   54.3320   10.6770 C.3   173  ILE173      0.0019
     89  CD1       42.2670   53.7650    8.2580 C.3   173  ILE173      0.0001
     90  N         36.5670   47.9180    7.4800 N.3   180  LEU180     -0.1245
     91  CA        37.6440   47.5500    8.4100 C.3   180  LEU180      0.1561
     92  C         37.1610   46.5570    9.4740 C.2   180  LEU180      0.2260
     93  O         37.8310   45.5490    9.7570 O.2   180  LEU180     -0.2867
     94  CB        38.2920   48.8050    9.0400 C.3   180  LEU180      0.0270
     95  CG        39.0950   49.6690    8.0290 C.3   180  LEU180      0.0019
     96  CD1       39.2950   51.1180    8.5040 C.3   180  LEU180      0.0001
     97  CD2       40.4470   49.0160    7.6950 C.3   180  LEU180      0.0001
     98  N         38.1030   42.4520    9.9120 N.3   184  LEU184     -0.1245
     99  CA        38.5140   41.8440   11.1780 C.3   184  LEU184      0.1561
    100  C         37.7730   40.5270   11.4640 C.2   184  LEU184      0.2260
    101  O         38.3710   39.5410   11.9150 O.2   184  LEU184     -0.2867
    102  CB        38.2970   42.8470   12.3240 C.3   184  LEU184      0.0270
    103  CG        39.3800   43.0080   13.3900 C.3   184  LEU184      0.0019
    104  CD1       40.6690   43.5230   12.7900 C.3   184  LEU184      0.0001
    105  CD2       38.9030   43.9610   14.4550 C.3   184  LEU184      0.0001
    106  N         42.8470   45.4480   22.0740 N.3   200  MET200     -0.1245
    107  CA        42.8000   46.2230   20.8540 C.3   200  MET200      0.1570
    108  C         42.2810   47.6440   21.1100 C.2   200  MET200      0.2261
    109  O         42.8680   48.6040   20.6060 O.2   200  MET200     -0.2867
    110  CB        41.9840   45.5050   19.7890 C.3   200  MET200      0.0387
    111  CG        41.8770   46.2630   18.5040 C.3   200  MET200      0.0595
    112  SD        40.8580   45.4040   17.3100 S.3   200  MET200     -0.1393
    113  CE        39.1910   45.6790   18.0170 C.3   200  MET200      0.0692
    114  N         44.2850   51.1720   20.6190 N.3   204  ALA204     -0.1245
    115  CA        43.7690   52.2470   19.7590 C.3   204  ALA204      0.1562
    116  C         43.7200   53.5950   20.4910 C.2   204  ALA204      0.2260
    117  O         44.0650   54.6230   19.9170 O.2   204  ALA204     -0.2867
    118  CB        42.3930   51.8980   19.1290 C.3   204  ALA204      0.0290
    119  N         47.1840   55.1020   20.8150 N.3   207  LEU207     -0.1245
    120  CA        47.6580   55.5900   19.5370 C.3   207  LEU207      0.1561
    121  C         46.8970   56.8280   19.0580 C.2   207  LEU207      0.2260
    122  O         47.3060   57.4710   18.0900 O.2   207  LEU207     -0.2867
    123  CB        47.6080   54.4730   18.4900 C.3   207  LEU207      0.0270
    124  CG        48.6260   53.3370   18.7450 C.3   207  LEU207      0.0019
    125  CD1       48.3060   52.1170   17.9170 C.3   207  LEU207      0.0001
    126  CD2       50.0790   53.8320   18.4790 C.3   207  LEU207      0.0001
    127  N         44.4070   47.8060    1.4760 N.3   255  HIS255     -0.1226
    128  CA        44.8900   47.8060    2.8650 C.3   255  HIS255      0.1752
    129  C         45.1120   46.3960    3.4320 C.2   255  HIS255      0.2596
    130  O         46.0970   46.1500    4.1290 O.2   255  HIS255     -0.2718
    131  CB        43.9050   48.5820    3.7310 C.3   255  HIS255      0.0759
    132  CG        44.3300   48.7490    5.1560 C.ar  255  HIS255      0.0818
    133  ND1       45.3770   49.5670    5.5350 N.ar  255  HIS255     -0.2268
    134  CD2       43.8370   48.2170    6.2970 C.ar  255  HIS255      0.1154
    135  CE1       45.5000   49.5390    6.8500 C.ar  255  HIS255      0.1986
    136  NE2       44.5810   48.7240    7.3370 N.ar  255  HIS255     -0.2212
    137  N         44.1740   45.4870    3.1440 N.am  256  PHE256     -0.1976
    138  CA        44.2580   44.0890    3.5920 C.3   256  PHE256      0.1639
    139  C         45.0210   43.1970    2.6240 C.2   256  PHE256      0.2290
    140  O         45.9510   42.4900    3.0250 O.2   256  PHE256     -0.2864
    141  CB        42.8560   43.4990    3.8520 C.3   256  PHE256      0.0560
    142  CG        42.1370   44.1230    5.0200 C.ar  256  PHE256     -0.0200
    143  CD1       40.9040   44.7410    4.8420 C.ar  256  PHE256     -0.0042
    144  CD2       42.6860   44.1120    6.2880 C.ar  256  PHE256     -0.0042
    145  CE1       40.2380   45.3220    5.9130 C.ar  256  PHE256     -0.0003
    146  CE2       42.0150   44.6960    7.3670 C.ar  256  PHE256     -0.0003
    147  CZ        40.7850   45.2960    7.1730 C.ar  256  PHE256     -0.0000
@<TRIPOS>BOND
     1   127   128    1
     2   139   140    2
     3   139   138    1
     4   128   129    1
     5   128   131    1
     6    72    71    1
     7   137   129   am
     8   137   138    1
     9   129   130    2
    10   138   141    1
    11   131   132    1
    12   141   142    1
    13    71    70   ar
    14    71    69   ar
    15   143   142   ar
    16   143   145   ar
    17    70    68   ar
    18   142   144   ar
    19   132   133   ar
    20   132   134   ar
    21    69    67   ar
    22   133   135   ar
    23   145   147   ar
    24    42    40   ar
    25    42    41   ar
    26    68    66   ar
    27   144   146   ar
    28   134   136   ar
    29    40    38   ar
    30    67    66   ar
    31    41    39   ar
    32   135   136   ar
    33    66    65    1
    34    82    83    1
    35   147   146   ar
    36    90    91    1
    37    38    39   ar
    38    38    37    1
    39    97    95    1
    40    95    96    1
    41    95    94    1
    42    83    84    1
    43    83    86    1
    44    89    87    1
    45    91    94    1
    46    91    92    1
    47    37    34    1
    48    65    62    1
    49    75    76    2
    50    75    74    1
    51    84    85    2
    52    62    61    1
    53    62    63    1
    54    73    74    1
    55    34    35    1
    56    34    33    1
    57    87    86    1
    58    74    77    1
    59    43    35   am
    60    43    44    1
    61    92    93    2
    62    86    88    1
    63    47    44    1
    64    47    48    1
    65    35    36    2
    66    44    45    1
    67    98    99    1
    68    63    64    2
    69    77    78    1
    70    99   100    1
    71    99   102    1
    72    78    79    1
    73    45    46    2
    74    45    49   am
    75   100   101    2
    76    49    50    1
    77   102   103    1
    78    60    58    1
    79    79    81   am
    80    79    80    2
    81   104   103    1
    82    53    54    1
    83     5     6    1
    84     5     2    1
    85    58    59    1
    86    58    57    1
    87   103   105    1
    88     7     6   ar
    89     7     9   ar
    90     6     8   ar
    91     9    11   ar
    92     8    10   ar
    93    11    10   ar
    94    11    12    1
    95    50    51    1
    96    54    57    1
    97    54    55    1
    98    51    52    2
    99    32    29    1
   100     1     2    1
   101     2     3    1
   102    55    56    2
   103     3     4    2
   104    29    28    1
   105    29    30    1
   106    28    23   am
   107    21    22    1
   108    26    25    1
   109    30    31    2
   110    19    18    1
   111    23    22    1
   112    23    24    2
   113   112   113    1
   114   112   111    1
   115    22    25    1
   116    25    27    1
   117    18    17    1
   118    18    20    1
   119   125   124    1
   120   122   121    2
   121   126   124    1
   122   123   124    1
   123   123   120    1
   124   111   110    1
   125    17    14    1
   126   121   120    1
   127   118   115    1
   128    13    14    1
   129   120   119    1
   130    14    15    1
   131   115   116    1
   132   115   114    1
   133   110   107    1
   134   117   116    2
   135   109   108    2
   136   107   108    1
   137   107   106    1
   138    15    16    2
