@<TRIPOS>MOLECULE
tmp/2hfkB00.pdb
 143 132 0 0 0
SMALL
GASTEIGER

@<TRIPOS>ATOM
      1  N         32.7460   52.4770   41.0850 N.3    17  TYR17      -0.1227
      2  CA        31.3940   52.0080   40.7090 C.3    17  TYR17       0.1736
      3  C         30.7360   52.9110   39.6540 C.2    17  TYR17       0.2596
      4  O         30.2030   52.4350   38.6410 O.2    17  TYR17      -0.2718
      5  CB        30.5210   51.9490   41.9760 C.3    17  TYR17       0.0548
      6  CG        29.0920   51.4670   41.7900 C.ar   17  TYR17      -0.0200
      7  CD1       28.0990   52.3150   41.2910 C.ar   17  TYR17      -0.0009
      8  CD2       28.7300   50.1810   42.1530 C.ar   17  TYR17      -0.0009
      9  CE1       26.7780   51.8590   41.1350 C.ar   17  TYR17       0.0417
     10  CE2       27.4250   49.7180   41.9960 C.ar   17  TYR17       0.0417
     11  CZ        26.4650   50.5450   41.4870 C.ar   17  TYR17       0.1957
     12  OH        25.1820   50.0640   41.3560 O.3    17  TYR17      -0.2866
     13  N         30.7640   54.2180   39.9110 N.am   18  GLY18      -0.1957
     14  CA        30.0960   55.1980   39.0650 C.3    18  GLY18       0.1869
     15  C         30.6560   55.2090   37.6590 C.2    18  GLY18       0.2309
     16  O         29.8960   55.1940   36.6890 O.2    18  GLY18      -0.2863
     17  N         29.5500   52.0630   35.9010 N.3    21  LEU21      -0.1245
     18  CA        28.1500   52.1410   35.5210 C.3    21  LEU21       0.1561
     19  C         27.9610   52.9010   34.2220 C.2    21  LEU21       0.2260
     20  O         27.1190   52.5330   33.4140 O.2    21  LEU21      -0.2867
     21  CB        27.2750   52.7310   36.6400 C.3    21  LEU21       0.0270
     22  CG        26.4880   51.7030   37.4680 C.3    21  LEU21       0.0019
     23  CD1       25.3340   51.1130   36.6830 C.3    21  LEU21       0.0001
     24  CD2       27.3890   50.5640   38.0000 C.3    21  LEU21       0.0001
     25  N         16.5440   47.8780   39.5470 N.3    67  THR67      -0.1218
     26  CA        17.4720   47.7120   38.4260 C.3    67  THR67       0.1862
     27  C         18.5940   46.7010   38.6920 C.2    67  THR67       0.2287
     28  O         19.3400   46.3620   37.7730 O.2    67  THR67      -0.2866
     29  CB        18.1790   49.0420   38.0390 C.3    67  THR67       0.1770
     30  OG1       19.0430   49.4430   39.1100 O.3    67  THR67      -0.2211
     31  CG2       17.1670   50.1570   37.7360 C.3    67  THR67       0.0375
     32  N         14.6480   51.8600   46.5030 N.3   134  ALA134     -0.1231
     33  CA        15.9120   52.4110   45.9670 C.3   134  ALA134      0.1694
     34  C         15.7110   52.8380   44.5140 C.2   134  ALA134      0.2592
     35  O         14.8320   53.6730   44.2420 O.2   134  ALA134     -0.2718
     36  CB        17.0750   51.4190   46.1470 C.3   134  ALA134      0.0304
     37  N         16.4680   52.2810   43.5750 N.am  135  GLY135     -0.1957
     38  CA        16.2140   52.5580   42.1580 C.3   135  GLY135      0.1869
     39  C         14.7930   52.1930   41.7340 C.2   135  GLY135      0.2309
     40  O         14.2060   52.8480   40.8600 O.2   135  GLY135     -0.2863
     41  N         12.4500   55.0690   42.4410 N.3   138  LEU138     -0.1245
     42  CA        12.4760   55.9990   41.3100 C.3   138  LEU138      0.1561
     43  C         11.6290   55.4940   40.1530 C.2   138  LEU138      0.2260
     44  O         10.8110   56.2420   39.6000 O.2   138  LEU138     -0.2867
     45  CB        13.9200   56.2760   40.8500 C.3   138  LEU138      0.0270
     46  CG        14.8480   56.8250   41.9300 C.3   138  LEU138      0.0019
     47  CD1       16.2180   57.1560   41.2870 C.3   138  LEU138      0.0001
     48  CD2       14.2500   58.0530   42.6550 C.3   138  LEU138      0.0001
     49  N         16.5130   57.9870   46.3630 N.3   164  TYR164     -0.1241
     50  CA        17.5460   59.0220   46.3160 C.3   164  TYR164      0.1605
     51  C         17.4690   59.6560   44.9420 C.2   164  TYR164      0.2264
     52  O         18.1790   59.2510   44.0360 O.2   164  TYR164     -0.2867
     53  CB        18.9460   58.4380   46.5720 C.3   164  TYR164      0.0534
     54  CG        19.2190   58.2150   48.0340 C.ar  164  TYR164     -0.0201
     55  CD1       18.8980   57.0060   48.6490 C.ar  164  TYR164     -0.0009
     56  CD2       19.7930   59.2290   48.8110 C.ar  164  TYR164     -0.0009
     57  CE1       19.1490   56.8060   50.0040 C.ar  164  TYR164      0.0417
     58  CE2       20.0450   59.0400   50.1740 C.ar  164  TYR164      0.0417
     59  CZ        19.7250   57.8250   50.7540 C.ar  164  TYR164      0.1957
     60  OH        19.9720   57.6230   52.0820 O.3   164  TYR164     -0.2866
     61  N         17.5220   62.4800   41.7320 N.3   166  PRO166     -0.2116
     62  CA        18.4950   63.4830   41.2630 C.3   166  PRO166      0.1372
     63  C         18.4340   64.7570   42.1050 C.2   166  PRO166      0.2244
     64  O         17.3390   65.2530   42.4260 O.2   166  PRO166     -0.2868
     65  CB        18.0320   63.7770   39.8410 C.3   166  PRO166      0.0268
     66  CG        17.3700   62.5390   39.4000 C.3   166  PRO166      0.0207
     67  CD        16.7570   61.9030   40.6140 C.3   166  PRO166      0.0892
     68  N         21.1930   62.7070   45.7350 N.3   169  GLN169     -0.1245
     69  CA        21.8540   61.3930   45.7350 C.3   169  GLN169      0.1566
     70  C         23.3130   61.3570   46.2160 C.2   169  GLN169      0.2260
     71  O         23.9730   60.3200   46.1260 O.2   169  GLN169     -0.2867
     72  CB        21.6700   60.6740   44.3880 C.3   169  GLN169      0.0367
     73  CG        21.9500   61.5000   43.1620 C.3   169  GLN169      0.0905
     74  CD        21.3220   60.9270   41.9020 C.2   169  GLN169      0.2608
     75  OE1       20.3200   60.2050   41.9470 O.2   169  GLN169     -0.2717
     76  NE2       21.9070   61.2520   40.7670 N.am  169  GLN169     -0.0878
     77  N         24.3030   58.2930   48.3280 N.3   172  ILE172     -0.1231
     78  CA        24.3210   57.0560   47.5560 C.3   172  ILE172      0.1692
     79  C         25.5420   56.9970   46.6430 C.2   172  ILE172      0.2591
     80  O         26.0670   55.9210   46.3610 O.2   172  ILE172     -0.2718
     81  CB        23.0470   56.9040   46.7040 C.3   172  ILE172      0.0266
     82  CG1       22.4760   55.4910   46.8460 C.3   172  ILE172      0.0019
     83  CG2       23.3400   57.2210   45.2450 C.3   172  ILE172      0.0020
     84  CD1       22.1750   55.0960   48.2750 C.3   172  ILE172      0.0001
     85  N         25.9860   58.1630   46.1860 N.am  173  GLU173     -0.1979
     86  CA        27.2350   58.2730   45.4280 C.3   173  GLU173      0.1602
     87  C         28.4330   57.9880   46.3290 C.2   173  GLU173      0.2287
     88  O         29.3290   57.2150   45.9690 O.2   173  GLU173     -0.2864
     89  CB        27.3550   59.6490   44.7670 C.3   173  GLU173      0.0415
     90  CG        26.2290   59.9130   43.7760 C.3   173  GLU173      0.1163
     91  CD        26.3410   61.2400   43.0550 C.2   173  GLU173      0.3649
     92  OE1       26.5920   62.2720   43.7130 O.co2 173  GLU173     -0.2457
     93  OE2       26.1490   61.2450   41.8200 O.co2 173  GLU173     -0.2457
     94  N         28.7840   54.2570   47.1150 N.3   176  SER176     -0.1217
     95  CA        28.6720   53.3690   45.9370 C.3   176  SER176      0.1889
     96  C         29.4610   52.0590   46.0810 C.2   176  SER176      0.2288
     97  O         29.0130   51.0030   45.6110 O.2   176  SER176     -0.2866
     98  CB        29.0190   54.1020   44.6310 C.3   176  SER176      0.2089
     99  OG        30.3530   54.5790   44.6390 O.3   176  SER176     -0.2183
    100  N         27.2630   49.7510   47.7620 N.3   179  LEU179     -0.1245
    101  CA        26.2220   49.3280   46.8260 C.3   179  LEU179      0.1561
    102  C         26.7500   48.2070   45.9280 C.2   179  LEU179      0.2260
    103  O         26.1080   47.1590   45.7780 O.2   179  LEU179     -0.2867
    104  CB        25.7100   50.5090   45.9980 C.3   179  LEU179      0.0270
    105  CG        24.8760   51.6090   46.6780 C.3   179  LEU179      0.0019
    106  CD1       24.5870   52.7050   45.6760 C.3   179  LEU179      0.0001
    107  CD2       23.5700   51.0810   47.2610 C.3   179  LEU179      0.0001
    108  N         21.0860   46.8980   33.7060 N.3   199  MET199     -0.1245
    109  CA        21.2330   47.7480   34.8850 C.3   199  MET199      0.1570
    110  C         21.8440   49.1080   34.5320 C.2   199  MET199      0.2261
    111  O         21.3570   50.1410   34.9750 O.2   199  MET199     -0.2867
    112  CB        22.0630   47.0520   35.9650 C.3   199  MET199      0.0387
    113  CG        22.2240   47.8740   37.2380 C.3   199  MET199      0.0595
    114  SD        23.1430   47.0130   38.5070 S.3   199  MET199     -0.1393
    115  CE        24.8090   47.1230   37.8380 C.3   199  MET199      0.0692
    116  N         19.9630   52.8150   34.7720 N.3   203  ALA203     -0.1245
    117  CA        20.6540   53.8490   35.5500 C.3   203  ALA203      0.1562
    118  C         20.7620   55.1540   34.7630 C.2   203  ALA203      0.2260
    119  O         20.4810   56.2360   35.3030 O.2   203  ALA203     -0.2867
    120  CB        22.0530   53.3610   36.0040 C.3   203  ALA203      0.0290
    121  N         17.3940   56.8790   34.3630 N.3   206  LEU206     -0.1231
    122  CA        16.8990   57.4850   35.5980 C.3   206  LEU206      0.1693
    123  C         17.6650   58.7490   35.9600 C.2   206  LEU206      0.2591
    124  O         17.2030   59.5560   36.7770 O.2   206  LEU206     -0.2718
    125  CB        16.8970   56.4640   36.7380 C.3   206  LEU206      0.0284
    126  CG        15.8470   55.3550   36.5530 C.3   206  LEU206      0.0019
    127  CD1       16.1280   54.1510   37.4490 C.3   206  LEU206      0.0001
    128  CD2       14.4250   55.8960   36.8090 C.3   206  LEU206      0.0001
    129  N         18.8180   58.9230   35.3170 N.am  207  ALA207     -0.1980
    130  CA        19.6610   60.0960   35.5160 C.3   207  ALA207      0.1597
    131  C         19.2900   61.2350   34.5650 C.2   207  ALA207      0.2287
    132  O         19.6620   62.3890   34.7990 O.2   207  ALA207     -0.2864
    133  CB        21.1340   59.7140   35.3560 C.3   207  ALA207      0.0319
    134  N         19.8700   51.1110   54.2760 N.3   254  HIS254     -0.1241
    135  CA        19.3720   51.0710   52.9030 C.3   254  HIS254      0.1621
    136  C         19.0350   49.6480   52.4640 C.2   254  HIS254      0.2264
    137  O         18.0300   49.4230   51.8070 O.2   254  HIS254     -0.2867
    138  CB        20.4200   51.6860   51.9760 C.3   254  HIS254      0.0745
    139  CG        19.9610   51.8760   50.5660 C.ar  254  HIS254      0.0817
    140  ND1       18.9590   52.7570   50.2220 N.ar  254  HIS254     -0.2268
    141  CD2       20.3950   51.3240   49.4070 C.ar  254  HIS254      0.1154
    142  CE1       18.8000   52.7450   48.9100 C.ar  254  HIS254      0.1986
    143  NE2       19.6540   51.8780   48.3920 N.ar  254  HIS254     -0.2212
@<TRIPOS>BOND
     1    20    19    2
     2   108   109    1
     3    19    18    1
     4   121   122    1
     5   110   109    1
     6   110   111    2
     7   131   132    2
     8   131   130    1
     9   118   119    2
    10   118   117    1
    11   116   117    1
    12   109   112    1
    13   129   130    1
    14   129   123   am
    15   133   130    1
    16    18    17    1
    17    18    21    1
    18   117   120    1
    19   122   123    1
    20   122   125    1
    21   123   124    2
    22   112   113    1
    23   126   125    1
    24   126   128    1
    25   126   127    1
    26    21    22    1
    27    23    22    1
    28    16    15    2
    29   113   114    1
    30    22    24    1
    31    15    14    1
    32    31    29    1
    33    28    27    2
    34   115   114    1
    35    29    26    1
    36    29    30    1
    37    26    27    1
    38    26    25    1
    39     4     3    2
    40    14    13    1
    41    66    65    1
    42    66    67    1
    43    44    43    2
    44     3    13   am
    45     3     2    1
    46    65    62    1
    47    43    42    1
    48    67    61    1
    49     2     1    1
    50     2     5    1
    51    76    74   am
    52    45    42    1
    53    45    46    1
    54    40    39    2
    55     9     7   ar
    56     9    11   ar
    57    62    61    1
    58    62    63    1
    59    47    46    1
    60     7     6   ar
    61    42    41    1
    62    12    11    1
    63    11    10   ar
    64    39    38    1
    65     6     5    1
    66     6     8   ar
    67    93    91   ar
    68    74    75    2
    69    74    73    1
    70    46    48    1
    71    10     8   ar
    72    63    64    2
    73    38    37    1
    74    91    92   ar
    75    91    90    1
    76    73    72    1
    77    37    34   am
    78    90    89    1
    79    52    51    2
    80    35    34    2
    81    72    69    1
    82    34    33    1
    83    98    99    1
    84    98    95    1
    85    89    86    1
    86    51    50    1
    87    83    81    1
    88    86    85    1
    89    86    87    1
    90    97    96    2
    91   106   105    1
    92    69    68    1
    93    69    70    1
    94   103   102    2
    95   102   101    1
    96    95    96    1
    97    95    94    1
    98    33    36    1
    99    33    32    1
   100    88    87    2
   101   104   105    1
   102   104   101    1
   103    71    70    2
   104    85    79   am
   105    50    49    1
   106    50    53    1
   107    80    79    2
   108    53    54    1
   109    79    78    1
   110   105   107    1
   111    81    82    1
   112    81    78    1
   113   101   100    1
   114    82    84    1
   115    78    77    1
   116    54    55   ar
   117    54    56   ar
   118   143   142   ar
   119   143   141   ar
   120    55    57   ar
   121    56    58   ar
   122   142   140   ar
   123   141   139   ar
   124    57    59   ar
   125    58    59   ar
   126   140   139   ar
   127   139   138    1
   128    59    60    1
   129   137   136    2
   130   138   135    1
   131   136   135    1
   132   135   134    1
