@<TRIPOS>MOLECULE
tmp/2hfoA00.pdb
 158 148 0 0 0
SMALL
GASTEIGER

@<TRIPOS>ATOM
      1  N         13.5190   29.3830   14.6150 N.3     8  TYR8       -0.1241
      2  CA        14.0280   28.5160   13.5720 C.3     8  TYR8        0.1605
      3  C         13.0470   28.5150   12.4210 C.2     8  TYR8        0.2264
      4  O         11.9000   28.8940   12.6010 O.2     8  TYR8       -0.2867
      5  CB        14.2900   27.0700   14.1060 C.3     8  TYR8        0.0534
      6  CG        13.0470   26.2220   14.1660 C.ar    8  TYR8       -0.0201
      7  CD1       12.2880   26.1700   15.3260 C.ar    8  TYR8       -0.0009
      8  CD2       12.5800   25.5330   13.0500 C.ar    8  TYR8       -0.0009
      9  CE1       11.1060   25.4490   15.3810 C.ar    8  TYR8        0.0417
     10  CE2       11.3650   24.7690   13.1180 C.ar    8  TYR8        0.0417
     11  CZ        10.6690   24.7410   14.2830 C.ar    8  TYR8        0.1957
     12  OH         9.4720   24.0350   14.3890 O.3     8  TYR8       -0.2866
     13  N         -0.4040   19.1520   14.1530 N.3    24  ILE24      -0.1245
     14  CA         0.7670   19.8690   14.7250 C.3    24  ILE24       0.1561
     15  C          0.3560   20.7540   15.9120 C.2    24  ILE24       0.2260
     16  O          0.9360   20.6630   17.0080 O.2    24  ILE24      -0.2867
     17  CB         1.5300   20.7440   13.6530 C.3    24  ILE24       0.0252
     18  CG1        2.1840   19.8690   12.5780 C.3    24  ILE24       0.0019
     19  CG2        2.5610   21.6510   14.3240 C.3    24  ILE24       0.0019
     20  CD1        2.6410   20.6520   11.3480 C.3    24  ILE24       0.0001
     21  N         -0.7670   18.6830   19.1050 N.3    27  SER27      -0.1202
     22  CA         0.3420   18.0960   19.8940 C.3    27  SER27       0.2020
     23  C          1.0390   19.1730   20.6900 C.2    27  SER27       0.2619
     24  O          1.3070   18.9980   21.8590 O.2    27  SER27      -0.2717
     25  CB         1.4000   17.4090   19.0120 C.3    27  SER27       0.2103
     26  OG         0.8290   16.5680   18.0280 O.3    27  SER27      -0.2182
     27  N          1.3700   20.2810   20.0270 N.am   28  SER28      -0.1951
     28  CA         2.0610   21.3880   20.6690 C.3    28  SER28       0.1924
     29  C          1.2640   21.8990   21.8870 C.2    28  SER28       0.2314
     30  O          1.8130   22.0600   22.9920 O.2    28  SER28      -0.2863
     31  CB         2.3940   22.4930   19.6410 C.3    28  SER28       0.2116
     32  OG         1.2730   23.3040   19.3870 O.3    28  SER28      -0.2180
     33  N         -0.8920   20.2890   23.6000 N.3    30  ARG30      -0.1231
     34  CA        -0.9550   19.2860   24.6430 C.3    30  ARG30       0.1694
     35  C          0.3930   19.1890   25.3520 C.2    30  ARG30       0.2592
     36  O          0.4310   19.1240   26.5790 O.2    30  ARG30      -0.2718
     37  CB        -1.4040   17.9360   24.0870 C.3    30  ARG30       0.0321
     38  CG        -1.4370   16.8170   25.1010 C.3    30  ARG30       0.0489
     39  CD        -2.3790   15.6620   24.7000 C.3    30  ARG30       0.2205
     40  NE        -2.5980   15.5540   23.2520 N.pl3  30  ARG30      -0.0865
     41  CZ        -1.6770   15.2120   22.3520 C.cat  30  ARG30       0.5346
     42  NH1       -0.4220   14.9600   22.7240 N.pl3  30  ARG30       0.1354
     43  NH2       -2.0180   15.1500   21.0640 N.pl3  30  ARG30       0.1354
     44  N          1.4850   19.2070   24.5870 N.am   31  ASN31      -0.1960
     45  CA         2.8220   19.0500   25.1420 C.3    31  ASN31       0.1819
     46  C          3.3970   20.2820   25.8320 C.2    31  ASN31       0.2621
     47  O          3.9860   20.1560   26.8930 O.2    31  ASN31      -0.2715
     48  CB         3.8090   18.5810   24.0630 C.3    31  ASN31       0.1195
     49  CG         3.4750   17.2070   23.5010 C.2    31  ASN31       0.2630
     50  OD1        2.7030   16.4430   24.0800 O.2    31  ASN31      -0.2716
     51  ND2        4.0590   16.8940   22.3580 N.am   31  ASN31      -0.0877
     52  N          3.2580   21.4550   25.2070 N.am   32  ASN32      -0.1972
     53  CA         3.8870   22.7070   25.6770 C.3    32  ASN32       0.1688
     54  C          3.5820   23.2000   27.1090 C.2    32  ASN32       0.2292
     55  O          4.5060   23.5090   27.8330 O.2    32  ASN32      -0.2864
     56  CB         3.7020   23.8150   24.6380 C.3    32  ASN32       0.1181
     57  CG         4.5700   23.6040   23.4330 C.2    32  ASN32       0.2629
     58  OD1        5.3410   22.6440   23.3740 O.2    32  ASN32      -0.2716
     59  ND2        4.5020   24.5210   22.4840 N.am   32  ASN32      -0.0877
     60  N          3.8590   29.7060   15.6910 N.3    41  LEU41      -0.1245
     61  CA         4.2680   28.9750   14.5060 C.3    41  LEU41       0.1561
     62  C          3.5880   29.6750   13.3240 C.2    41  LEU41       0.2260
     63  O          2.3760   29.8930   13.3720 O.2    41  LEU41      -0.2867
     64  CB         3.7660   27.5130   14.6410 C.3    41  LEU41       0.0270
     65  CG         3.9890   26.5300   13.4900 C.3    41  LEU41       0.0019
     66  CD1        5.4550   26.3110   13.3440 C.3    41  LEU41       0.0001
     67  CD2        3.2520   25.2050   13.7390 C.3    41  LEU41       0.0001
     68  N          7.9010   26.7970    7.3580 N.3    48  PHE48      -0.1241
     69  CA         7.5300   27.0780    8.7380 C.3    48  PHE48       0.1605
     70  C          8.5250   28.0730    9.3530 C.2    48  PHE48       0.2264
     71  O          9.7300   28.0250    9.0870 O.2    48  PHE48      -0.2867
     72  CB         7.6190   25.7780    9.5770 C.3    48  PHE48       0.0534
     73  CG         6.5140   24.7640    9.3140 C.ar   48  PHE48      -0.0203
     74  CD1        6.8010   23.5390    8.7320 C.ar   48  PHE48      -0.0042
     75  CD2        5.2020   25.0120    9.7150 C.ar   48  PHE48      -0.0042
     76  CE1        5.7900   22.5880    8.5480 C.ar   48  PHE48      -0.0003
     77  CE2        4.1950   24.0670    9.5290 C.ar   48  PHE48      -0.0003
     78  CZ         4.4830   22.8690    8.9440 C.ar   48  PHE48      -0.0000
     79  N          9.0250   29.2330   13.3930 N.3    50  GLN50      -0.1245
     80  CA         8.5290   29.1300   14.7500 C.3    50  GLN50       0.1566
     81  C          9.4370   29.8440   15.7320 C.2    50  GLN50       0.2260
     82  O         10.6670   29.8850   15.5530 O.2    50  GLN50      -0.2867
     83  CB         8.3820   27.6530   15.1620 C.3    50  GLN50       0.0367
     84  CG         7.7070   27.4520   16.5270 C.3    50  GLN50       0.0905
     85  CD         7.3600   26.0280   16.8120 C.2    50  GLN50       0.2608
     86  OE1        7.9030   25.0880   16.2100 O.2    50  GLN50      -0.2717
     87  NE2        6.4460   25.8420   17.7370 N.am   50  GLN50      -0.0878
     88  N         10.0230   29.5680   19.9330 N.3    52  LEU52      -0.1245
     89  CA         9.7580   28.8450   21.1960 C.3    52  LEU52       0.1561
     90  C         10.3890   29.6230   22.3170 C.2    52  LEU52       0.2260
     91  O         11.5470   30.0820   22.1650 O.2    52  LEU52      -0.2867
     92  CB        10.4230   27.4570   21.1940 C.3    52  LEU52       0.0270
     93  CG        10.0120   26.4970   20.1000 C.3    52  LEU52       0.0019
     94  CD1       10.9320   25.2860   20.0550 C.3    52  LEU52       0.0001
     95  CD2        8.5150   26.0680   20.3460 C.3    52  LEU52       0.0001
     96  N         12.2560   20.3920   23.4970 N.3    62  THR62      -0.1218
     97  CA        11.1630   20.5380   22.5310 C.3    62  THR62       0.1862
     98  C         11.7180   20.6640   21.1120 C.2    62  THR62       0.2287
     99  O         11.3220   19.9300   20.2250 O.2    62  THR62      -0.2866
    100  CB        10.2570   21.7100   22.8910 C.3    62  THR62       0.1770
    101  OG1        9.7250   21.5100   24.2180 O.3    62  THR62      -0.2211
    102  CG2        9.0880   21.7900   21.8940 C.3    62  THR62       0.0375
    103  N         13.0900   17.4540   19.6440 N.3    65  ARG65      -0.1231
    104  CA        11.9570   16.5650   19.3460 C.3    65  ARG65       0.1694
    105  C         11.2760   16.9770   18.0350 C.2    65  ARG65       0.2591
    106  O         11.0110   16.1430   17.1960 O.2    65  ARG65      -0.2718
    107  CB        10.9360   16.5790   20.4880 C.3    65  ARG65       0.0321
    108  CG         9.7960   15.5350   20.3370 C.3    65  ARG65       0.0489
    109  CD         9.0730   15.2160   21.6550 C.3    65  ARG65       0.2205
    110  NE         9.0370   16.3190   22.6340 N.pl3  65  ARG65      -0.0865
    111  CZ         8.2140   17.3630   22.5750 C.cat  65  ARG65       0.5346
    112  NH1        7.3600   17.4980   21.5720 N.pl3  65  ARG65       0.1354
    113  NH2        8.2400   18.2780   23.5260 N.pl3  65  ARG65       0.1354
    114  N         11.0040   18.2630   17.8670 N.am   66  ILE66      -0.1980
    115  CA        10.4130   18.8020   16.6440 C.3    66  ILE66       0.1595
    116  C         11.2410   18.4820   15.3820 C.2    66  ILE66       0.2287
    117  O         10.6940   18.1290   14.3290 O.2    66  ILE66      -0.2864
    118  CB        10.2600   20.3280   16.7690 C.3    66  ILE66       0.0276
    119  CG1        9.2090   20.6780   17.8370 C.3    66  ILE66       0.0022
    120  CG2        9.9410   20.9690   15.4180 C.3    66  ILE66       0.0022
    121  CD1        9.1900   22.1560   18.2480 C.3    66  ILE66       0.0001
    122  N         10.4400   15.4140   13.4850 N.3    69  ASP69      -0.1239
    123  CA         9.0950   15.3060   12.9130 C.3    69  ASP69       0.1674
    124  C          9.2000   15.0780   11.4090 C.2    69  ASP69       0.2266
    125  O          9.9090   15.8030   10.7150 O.2    69  ASP69      -0.2867
    126  CB         8.2680   16.5680   13.2390 C.3    69  ASP69       0.1410
    127  CG         6.7520   16.3350   13.0700 C.2    69  ASP69       0.3668
    128  OD1        5.9900   16.5580   14.0290 O.co2  69  ASP69      -0.2456
    129  OD2        6.3330   15.9240   11.9710 O.co2  69  ASP69      -0.2456
    130  N          7.1470   15.7540    9.1490 N.3    71  ARG71      -0.1231
    131  CA         6.3720   16.7370    8.3540 C.3    71  ARG71       0.1694
    132  C          7.1910   17.9400    7.8770 C.2    71  ARG71       0.2592
    133  O          6.6680   18.8520    7.2070 O.2    71  ARG71      -0.2718
    134  CB         5.1170   17.1760    9.1170 C.3    71  ARG71       0.0321
    135  CG         4.0610   16.0540    9.1880 C.3    71  ARG71       0.0489
    136  CD         2.9750   16.3010   10.2180 C.3    71  ARG71       0.2205
    137  NE         3.5000   16.4080   11.5790 N.pl3  71  ARG71      -0.0865
    138  CZ         2.7650   16.1710   12.6610 C.cat  71  ARG71       0.5346
    139  NH1        1.4900   15.8270   12.5420 N.pl3  71  ARG71       0.1354
    140  NH2        3.2930   16.2810   13.8600 N.pl3  71  ARG71       0.1354
    141  N          8.4680   17.9640    8.2330 N.am   72  HIS72      -0.1976
    142  CA         9.3970   18.9510    7.6790 C.3    72  HIS72       0.1656
    143  C         10.8190   18.4570    7.7550 C.2    72  HIS72       0.2291
    144  O         11.0780   17.3950    8.3400 O.2    72  HIS72      -0.2864
    145  CB         9.3000   20.2870    8.4100 C.3    72  HIS72       0.0771
    146  CG         9.6610   20.2170    9.8620 C.ar   72  HIS72       0.0820
    147  ND1        9.8320   21.3510   10.6300 N.ar   72  HIS72      -0.2267
    148  CD2        9.8590   19.1610   10.6940 C.ar   72  HIS72       0.1154
    149  CE1       10.0900   21.0000   11.8760 C.ar   72  HIS72       0.1986
    150  NE2       10.1440   19.6790   11.9370 N.ar   72  HIS72      -0.2212
    151  N          0.9550   27.3890   22.2960 N.3    93  MET93      -0.1245
    152  CA         1.3360   27.5050   20.8880 C.3    93  MET93       0.1570
    153  C          0.1980   28.1680   20.1390 C.2    93  MET93       0.2261
    154  O         -0.9860   27.8950   20.4070 O.2    93  MET93      -0.2867
    155  CB         1.6880   26.1430   20.2520 C.3    93  MET93       0.0387
    156  CG         2.3540   26.2520   18.8400 C.3    93  MET93       0.0595
    157  SD         3.6670   27.5340   18.7030 S.3    93  MET93      -0.1393
    158  CE         4.8140   27.1260   20.0560 C.3    93  MET93       0.0692
@<TRIPOS>BOND
     1   133   132    2
     2    68    69    1
     3   142   143    1
     4   142   141    1
     5   142   145    1
     6   143   144    2
     7   132   141   am
     8   132   131    1
     9   131   134    1
    10   131   130    1
    11   145   146    1
    12    76    74   ar
    13    76    78   ar
    14    74    73   ar
    15    69    70    1
    16    69    72    1
    17    78    77   ar
    18    71    70    2
    19   134   135    1
    20   135   136    1
    21    73    72    1
    22    73    75   ar
    23    77    75   ar
    24   146   147   ar
    25   146   148   ar
    26   136   137    1
    27   147   149   ar
    28   148   150   ar
    29   125   124    2
    30    20    18    1
    31   124   123    1
    32   137   138    2
    33   149   150   ar
    34   129   127   ar
    35     3     4    2
    36     3     2    1
    37   139   138    1
    38    18    17    1
    39   138   140    1
    40   123   126    1
    41   123   122    1
    42     8    10   ar
    43     8     6   ar
    44   127   126    1
    45   127   128   ar
    46    10    11   ar
    47    62    63    2
    48    62    61    1
    49    66    65    1
    50    79    80    1
    51    65    67    1
    52    65    64    1
    53     2     5    1
    54     2     1    1
    55    17    19    1
    56    17    14    1
    57     5     6    1
    58    13    14    1
    59     6     7   ar
    60    11    12    1
    61    11     9   ar
    62   117   116    2
    63    61    64    1
    64    61    60    1
    65    14    15    1
    66    80    83    1
    67    80    81    1
    68    83    84    1
    69     7     9   ar
    70   116   115    1
    71   120   118    1
    72    82    81    2
    73    15    16    2
    74    86    85    2
    75    84    85    1
    76   115   118    1
    77   115   114    1
    78   118   119    1
    79    85    87   am
    80   106   105    2
    81   119   121    1
    82   114   105   am
    83    26    25    1
    84   105   104    1
    85   157   156    1
    86   157   158    1
    87   156   155    1
    88    25    22    1
    89    21    22    1
    90   104   103    1
    91   104   107    1
    92    32    31    1
    93    31    28    1
    94    22    23    1
    95    88    89    1
    96    27    28    1
    97    27    23   am
    98    94    93    1
    99    93    95    1
   100    93    92    1
   101   153   154    2
   102   153   152    1
   103    99    98    2
   104   155   152    1
   105   108   107    1
   106   108   109    1
   107    28    29    1
   108    23    24    2
   109   152   151    1
   110    43    41    1
   111    98    97    1
   112    92    89    1
   113    89    90    1
   114   112   111    1
   115   109   110    1
   116    29    30    2
   117   102   100    1
   118    91    90    2
   119    41    42    1
   120    41    40    2
   121    51    49   am
   122    59    57   am
   123    97   100    1
   124    97    96    1
   125   111   110    2
   126   111   113    1
   127   100   101    1
   128    40    39    1
   129    58    57    2
   130    57    56    1
   131    49    48    1
   132    49    50    2
   133    33    34    1
   134    48    45    1
   135    37    34    1
   136    37    38    1
   137    44    45    1
   138    44    35   am
   139    56    53    1
   140    34    35    1
   141    39    38    1
   142    45    46    1
   143    52    53    1
   144    52    46   am
   145    35    36    2
   146    53    54    1
   147    46    47    2
   148    54    55    2
