@<TRIPOS>MOLECULE
tmp/2hfpA00.pdb
 234 219 0 0 0
SMALL
GASTEIGER

@<TRIPOS>ATOM
      1  N         27.1850  -20.4590    8.9650 N.3    44  ILE44      -0.1245
      2  CA        28.1400  -20.3290    7.9010 C.3    44  ILE44       0.1561
      3  C         29.4770  -19.8820    8.4970 C.2    44  ILE44       0.2260
      4  O         29.5580  -18.8340    9.0950 O.2    44  ILE44      -0.2867
      5  CB        27.6780  -19.3370    6.8430 C.3    44  ILE44       0.0252
      6  CG1       26.5160  -19.9580    6.0380 C.3    44  ILE44       0.0019
      7  CG2       28.8650  -19.0930    5.8540 C.3    44  ILE44       0.0019
      8  CD1       25.8200  -19.0040    5.0810 C.3    44  ILE44       0.0001
      9  N         29.1940  -22.5350    3.7470 N.3    50  LEU50      -0.1245
     10  CA        28.5550  -21.4920    2.9000 C.3    50  LEU50       0.1561
     11  C         27.7580  -22.1850    1.8070 C.2    50  LEU50       0.2260
     12  O         26.6180  -21.8290    1.5110 O.2    50  LEU50      -0.2867
     13  CB        29.6570  -20.5620    2.3020 C.3    50  LEU50       0.0270
     14  CG        29.2140  -19.5030    1.2690 C.3    50  LEU50       0.0019
     15  CD1       28.1260  -18.6370    1.8620 C.3    50  LEU50       0.0001
     16  CD2       30.4010  -18.6710    0.7510 C.3    50  LEU50       0.0001
     17  N         23.9260  -21.9460    1.0530 N.3    54  GLU54      -0.1245
     18  CA        23.3710  -21.3860   -0.1650 C.3    54  GLU54       0.1567
     19  C         22.2860  -22.2960   -0.7450 C.2    54  GLU54       0.2260
     20  O         21.3290  -21.8360   -1.3270 O.2    54  GLU54      -0.2867
     21  CB        24.4670  -21.1300   -1.2130 C.3    54  GLU54       0.0388
     22  CG        25.2480  -19.8340   -1.0290 C.3    54  GLU54       0.1160
     23  CD        26.4900  -19.7170   -1.9630 C.2    54  GLU54       0.3649
     24  OE1       27.2440  -20.7060   -2.1700 O.co2  54  GLU54      -0.2457
     25  OE2       26.7390  -18.6080   -2.4580 O.co2  54  GLU54      -0.2457
     26  N         18.8410  -21.5140    0.8310 N.3    57  ILE57      -0.1245
     27  CA        18.2600  -20.1980    0.5720 C.3    57  ILE57       0.1561
     28  C         18.0830  -19.7970   -0.9150 C.2    57  ILE57       0.2260
     29  O         17.5120  -18.7460   -1.2260 O.2    57  ILE57      -0.2867
     30  CB        18.9620  -19.0670    1.3890 C.3    57  ILE57       0.0252
     31  CG1       20.4710  -18.9980    1.1210 C.3    57  ILE57       0.0019
     32  CG2       18.7500  -19.3290    2.9230 C.3    57  ILE57       0.0019
     33  CD1       20.9340  -18.0020    0.0490 C.3    57  ILE57       0.0001
     34  N         14.9950  -18.4960   -3.1640 N.3    60  LYS60      -0.1231
     35  CA        14.4480  -17.2510   -2.6710 C.3    60  LYS60       0.1693
     36  C         14.4320  -16.2090   -3.7790 C.2    60  LYS60       0.2592
     37  O         13.5210  -15.3470   -3.8100 O.2    60  LYS60      -0.2718
     38  CB        15.3050  -16.7290   -1.5280 C.3    60  LYS60       0.0285
     39  CG        14.6070  -16.5450   -0.2040 C.3    60  LYS60       0.0035
     40  CD        15.6320  -16.3100    0.9380 C.3    60  LYS60       0.0206
     41  CE        16.6400  -15.1620    0.6400 C.3    60  LYS60       0.1093
     42  NZ        18.0020  -15.2670    1.3550 N.3    60  LYS60      -0.1314
     43  N         15.4590  -16.2720   -4.6420 N.am   61  HIS61      -0.1976
     44  CA        15.6250  -15.3210   -5.7470 C.3    61  HIS61       0.1656
     45  C         15.6350  -16.0410   -7.0720 C.2    61  HIS61       0.2291
     46  O         16.0840  -17.1960   -7.1620 O.2    61  HIS61      -0.2864
     47  CB        16.9030  -14.4870   -5.5530 C.3    61  HIS61       0.0771
     48  CG        16.9170  -13.7600   -4.2510 C.ar   61  HIS61       0.0820
     49  ND1       16.1140  -12.6600   -4.0080 N.ar   61  HIS61      -0.2267
     50  CD2       17.5490  -14.0340   -3.0840 C.ar   61  HIS61       0.1154
     51  CE1       16.2790  -12.2720   -2.7530 C.ar   61  HIS61       0.1986
     52  NE2       17.1510  -13.0810   -2.1730 N.ar   61  HIS61      -0.2212
     53  N         19.8850  -14.0570   -9.9600 N.3    65  LEU65      -0.1231
     54  CA        20.3220  -13.3400   -8.7820 C.3    65  LEU65       0.1693
     55  C         21.1560  -14.1710   -7.8110 C.2    65  LEU65       0.2591
     56  O         21.5900  -13.6650   -6.7750 O.2    65  LEU65      -0.2718
     57  CB        19.1440  -12.7480   -8.0320 C.3    65  LEU65       0.0284
     58  CG        18.2210  -11.7680   -8.7500 C.3    65  LEU65       0.0019
     59  CD1       17.2940  -11.2070   -7.6800 C.3    65  LEU65       0.0001
     60  CD2       19.0150  -10.6710   -9.4360 C.3    65  LEU65       0.0001
     61  N         21.3810  -15.4370   -8.1380 N.am   66  GLN66      -0.1979
     62  CA        22.2660  -16.3070   -7.3520 C.3    66  GLN66       0.1601
     63  C         23.7650  -16.0350   -7.6000 C.2    66  GLN66       0.2287
     64  O         24.6100  -16.3110   -6.7650 O.2    66  GLN66      -0.2864
     65  CB        21.8670  -17.7550   -7.6530 C.3    66  GLN66       0.0394
     66  CG        20.3400  -17.9110   -7.4810 C.3    66  GLN66       0.0908
     67  CD        19.8180  -19.2590   -7.8520 C.2    66  GLN66       0.2608
     68  OE1       20.5810  -20.1270   -8.2850 O.2    66  GLN66      -0.2717
     69  NE2       18.4950  -19.4720   -7.6570 N.am   66  GLN66      -0.0878
     70  N         29.8710  -12.6660   -4.2310 N.3    75  ARG75      -0.1231
     71  CA        28.4800  -13.1370   -4.0640 C.3    75  ARG75       0.1694
     72  C         27.9040  -12.6080   -2.7310 C.2    75  ARG75       0.2591
     73  O         26.7200  -12.2760   -2.6680 O.2    75  ARG75      -0.2718
     74  CB        28.3210  -14.6490   -4.0520 C.3    75  ARG75       0.0321
     75  CG        28.9740  -15.4080   -5.1710 C.3    75  ARG75       0.0489
     76  CD        28.2870  -16.7060   -5.4220 C.3    75  ARG75       0.2205
     77  NE        28.5370  -17.7390   -4.4040 N.pl3  75  ARG75      -0.0865
     78  CZ        29.6110  -18.5280   -4.3720 C.cat  75  ARG75       0.5346
     79  NH1       29.7140  -19.4700   -3.4340 N.pl3  75  ARG75       0.1354
     80  NH2       30.5820  -18.3750   -5.2850 N.pl3  75  ARG75       0.1354
     81  N         28.7370  -12.5690   -1.6840 N.am   76  ILE76      -0.1980
     82  CA        28.2770  -12.1580   -0.3470 C.3    76  ILE76       0.1595
     83  C         27.9040  -10.7000   -0.3920 C.2    76  ILE76       0.2287
     84  O         26.8480  -10.3040    0.1130 O.2    76  ILE76      -0.2864
     85  CB        29.3170  -12.4120    0.7720 C.3    76  ILE76       0.0276
     86  CG1       29.3400  -13.9190    1.1290 C.3    76  ILE76       0.0022
     87  CG2       28.9030  -11.6280    2.0660 C.3    76  ILE76       0.0022
     88  CD1       30.7490  -14.3950    1.5890 C.3    76  ILE76       0.0001
     89  N         24.7280  -10.3950   -2.4130 N.3    79  GLY79      -0.1210
     90  CA        23.6560  -10.7970   -1.5120 C.3    79  GLY79       0.1956
     91  C         23.2720   -9.7360   -0.4790 C.2    79  GLY79       0.2612
     92  O         22.0810   -9.5240   -0.2400 O.2    79  GLY79      -0.2717
     93  N         24.2470   -9.0750    0.1560 N.am   80  CYS80      -0.1970
     94  CA        23.8940   -7.9700    1.0640 C.3    80  CYS80       0.1712
     95  C         23.2120   -6.8430    0.3650 C.2    80  CYS80       0.2296
     96  O         22.3010   -6.2500    0.8970 O.2    80  CYS80      -0.2864
     97  CB        25.1220   -7.3520    1.7030 C.3    80  CYS80       0.0983
     98  SG        25.9000   -8.4710    2.7570 S.3    80  CYS80      -0.0798
     99  N         21.5580   -6.8740   -2.3470 N.3    82  PHE82      -0.1227
    100  CA        20.1810   -7.2170   -2.6760 C.3    82  PHE82       0.1736
    101  C         19.2380   -7.2820   -1.4440 C.2    82  PHE82       0.2595
    102  O         18.0710   -6.9280   -1.5180 O.2    82  PHE82      -0.2718
    103  CB        20.0740   -8.4760   -3.5070 C.3    82  PHE82       0.0547
    104  CG        18.7430   -8.6090   -4.1350 C.ar   82  PHE82      -0.0202
    105  CD1       18.5360   -8.2010   -5.4450 C.ar   82  PHE82      -0.0042
    106  CD2       17.6550   -9.0290   -3.3900 C.ar   82  PHE82      -0.0042
    107  CE1       17.2550   -8.2630   -6.0250 C.ar   82  PHE82      -0.0003
    108  CE2       16.3790   -9.0790   -3.9690 C.ar   82  PHE82      -0.0003
    109  CZ        16.1950   -8.6940   -5.2900 C.ar   82  PHE82      -0.0000
    110  N         19.7410   -7.7430   -0.3060 N.am   83  ARG83      -0.1966
    111  CA        18.9470   -7.6870    0.9030 C.3    83  ARG83       0.1729
    112  C         18.7080   -6.2140    1.3060 C.2    83  ARG83       0.2616
    113  O         17.6640   -5.8720    1.8460 O.2    83  ARG83      -0.2715
    114  CB        19.6050   -8.5270    2.0550 C.3    83  ARG83       0.0348
    115  CG        18.8270   -8.3570    3.3940 C.3    83  ARG83       0.0492
    116  CD        17.4500   -9.0310    3.2770 C.3    83  ARG83       0.2205
    117  NE        16.7070   -9.0200    4.5360 N.pl3  83  ARG83      -0.0865
    118  CZ        16.0320   -7.9730    5.0180 C.cat  83  ARG83       0.5346
    119  NH1       16.0100   -6.8320    4.3570 N.pl3  83  ARG83       0.1354
    120  NH2       15.3780   -8.0650    6.1740 N.pl3  83  ARG83       0.1354
    121  N         19.6600   -5.3310    1.0400 N.am   84  SER84      -0.1950
    122  CA        19.4850   -3.9060    1.3080 C.3    84  SER84       0.1924
    123  C         18.4070   -3.2660    0.4770 C.2    84  SER84       0.2314
    124  O         17.7770   -2.3090    0.8960 O.2    84  SER84      -0.2863
    125  CB        20.7760   -3.1630    1.0910 C.3    84  SER84       0.2116
    126  OG        21.6700   -3.5050    2.1320 O.3    84  SER84      -0.2180
    127  N         15.7980   -4.9660   -0.5670 N.3    86  GLU86      -0.1231
    128  CA        14.5730   -5.3740    0.0770 C.3    86  GLU86       0.1699
    129  C         14.2730   -4.5480    1.3070 C.2    86  GLU86       0.2592
    130  O         13.1360   -4.2740    1.6260 O.2    86  GLU86      -0.2718
    131  CB        14.6080   -6.8520    0.4100 C.3    86  GLU86       0.0402
    132  CG        14.8480   -7.6830   -0.8380 C.3    86  GLU86       0.1161
    133  CD        14.9960   -9.1420   -0.5220 C.2    86  GLU86       0.3649
    134  OE1       15.8330   -9.4820    0.3310 O.co2  86  GLU86      -0.2457
    135  OE2       14.2940   -9.9580   -1.1430 O.co2  86  GLU86      -0.2457
    136  N         15.3010   -4.2100    2.0450 N.am   87  ALA87      -0.1980
    137  CA        15.1520   -3.2150    3.1010 C.3    87  ALA87       0.1597
    138  C         14.5730   -1.8640    2.6910 C.2    87  ALA87       0.2287
    139  O         13.6820   -1.3710    3.3580 O.2    87  ALA87      -0.2864
    140  CB        16.5040   -3.0730    3.9230 C.3    87  ALA87       0.0319
    141  N         19.2950    1.3270    7.6150 N.3   121  ILE121     -0.1245
    142  CA        19.7290   -0.0350    7.3250 C.3   121  ILE121      0.1561
    143  C         20.7980   -0.3960    8.3180 C.2   121  ILE121      0.2260
    144  O         20.8150   -1.5270    8.8260 O.2   121  ILE121     -0.2867
    145  CB        20.1930   -0.2050    5.7900 C.3   121  ILE121      0.0252
    146  CG1       18.9670   -0.2920    4.8570 C.3   121  ILE121      0.0019
    147  CG2       21.1330   -1.4180    5.5840 C.3   121  ILE121      0.0019
    148  CD1       19.3170   -0.1330    3.3500 C.3   121  ILE121      0.0001
    149  N         18.8930   -1.3540   11.4980 N.3   124  MET124     -0.1230
    150  CA        18.3710   -2.7070   11.3820 C.3   124  MET124      0.1702
    151  C         19.4020   -3.8090   11.4620 C.2   124  MET124      0.2592
    152  O         19.1860   -4.7980   12.1120 O.2   124  MET124     -0.2718
    153  CB        17.6160   -2.8280   10.1080 C.3   124  MET124      0.0401
    154  CG        16.4200   -1.9300   10.1800 C.3   124  MET124      0.0596
    155  SD        15.3060   -2.0570    8.7820 S.3   124  MET124     -0.1393
    156  CE        16.3360   -1.9300    7.4580 C.3   124  MET124      0.0692
    157  N         20.5140   -3.6330   10.7820 N.am  125  LEU125     -0.1980
    158  CA        21.6130   -4.5710   10.8290 C.3   125  LEU125      0.1596
    159  C         22.0450   -4.8490   12.2730 C.2   125  LEU125      0.2287
    160  O         22.3680   -5.9830   12.6230 O.2   125  LEU125     -0.2864
    161  CB        22.7820   -3.9680   10.0500 C.3   125  LEU125      0.0297
    162  CG        23.9110   -4.9410    9.7160 C.3   125  LEU125      0.0022
    163  CD1       23.4270   -6.0800    8.8290 C.3   125  LEU125      0.0001
    164  CD2       25.1930   -4.2110    9.1960 C.3   125  LEU125      0.0001
    165  N         20.3400   -7.5000   14.1460 N.3   128  LEU128     -0.1245
    166  CA        20.6220   -8.8610   13.6400 C.3   128  LEU128      0.1561
    167  C         21.9960   -9.3890   14.0740 C.2   128  LEU128      0.2260
    168  O         22.3400  -10.5500   13.8190 O.2   128  LEU128     -0.2867
    169  CB        20.5960   -8.8210   12.1090 C.3   128  LEU128      0.0270
    170  CG        19.2780   -8.3760   11.4720 C.3   128  LEU128      0.0019
    171  CD1       19.4790   -8.2920    9.9920 C.3   128  LEU128      0.0001
    172  CD2       18.1460   -9.2780   11.8020 C.3   128  LEU128      0.0001
    173  N         26.1720  -12.5960   12.4780 N.3   134  VAL134     -0.1231
    174  CA        25.0350  -11.8530   12.0140 C.3   134  VAL134      0.1692
    175  C         23.9920  -12.8140   11.5090 C.2   134  VAL134      0.2592
    176  O         24.3060  -13.7940   10.8010 O.2   134  VAL134     -0.2718
    177  CB        25.4530  -10.8040   10.9370 C.3   134  VAL134      0.0266
    178  CG1       26.0610  -11.5170    9.7040 C.3   134  VAL134      0.0020
    179  CG2       24.2140   -9.9350   10.5060 C.3   134  VAL134      0.0020
    180  N         22.7500  -12.5780   11.9130 N.am  135  LEU135     -0.1966
    181  CA        21.6420  -13.3850   11.4300 C.3   135  LEU135      0.1728
    182  C         21.3680  -13.0680    9.9720 C.2   135  LEU135      0.2616
    183  O         21.2960  -11.8750    9.5980 O.2   135  LEU135     -0.2715
    184  CB        20.3600  -13.0950   12.2320 C.3   135  LEU135      0.0311
    185  CG        20.1620  -13.6500   13.6410 C.3   135  LEU135      0.0022
    186  CD1       18.7580  -13.3460   14.2270 C.3   135  LEU135      0.0001
    187  CD2       20.4650  -15.1770   13.7290 C.3   135  LEU135      0.0001
    188  N         21.1200  -14.1140    9.1560 N.am  136  ILE136     -0.1963
    189  CA        20.8710  -13.9500    7.7410 C.3   136  ILE136      0.1727
    190  C         19.6570  -14.7490    7.3360 C.2   136  ILE136      0.2617
    191  O         19.1220  -15.4850    8.1220 O.2   136  ILE136     -0.2715
    192  CB        22.0610  -14.4130    6.8840 C.3   136  ILE136      0.0290
    193  CG1       22.1890  -15.9460    6.9060 C.3   136  ILE136      0.0022
    194  CG2       23.3670  -13.7900    7.4230 C.3   136  ILE136      0.0023
    195  CD1       23.4450  -16.4220    6.1110 C.3   136  ILE136      0.0001
    196  N         19.1900  -14.5430    6.1240 N.am  137  SER137     -0.1936
    197  CA        17.9820  -15.2470    5.6300 C.3   137  SER137      0.2055
    198  C         16.8320  -15.1220    6.5940 C.2   137  SER137      0.2642
    199  O         16.1950  -16.1120    6.9300 O.2   137  SER137     -0.2714
    200  CB        18.2480  -16.7250    5.3950 C.3   137  SER137      0.2130
    201  OG        17.0970  -17.3790    4.8220 O.3   137  SER137     -0.2179
    202  N         16.5770  -13.9130    7.0770 N.am  138  GLU138     -0.1976
    203  CA        15.4230  -13.6860    7.9650 C.3   138  GLU138      0.1602
    204  C         15.5250  -14.5320    9.2080 C.2   138  GLU138      0.2287
    205  O         14.5340  -15.0700    9.6820 O.2   138  GLU138     -0.2864
    206  CB        14.1170  -14.0000    7.2450 C.3   138  GLU138      0.0415
    207  CG        14.1180  -13.6440    5.7840 C.3   138  GLU138      0.1163
    208  CD        13.7080  -12.1900    5.5550 C.2   138  GLU138      0.3649
    209  OE1       13.1640  -11.5760    6.5110 O.co2 138  GLU138     -0.2457
    210  OE2       13.9360  -11.6570    4.4350 O.co2 138  GLU138     -0.2457
    211  N         25.8670  -15.9700   10.0310 N.3   143  MET143     -0.1245
    212  CA        27.1860  -15.9770    9.4440 C.3   143  MET143      0.1570
    213  C         28.2000  -15.4180   10.4630 C.2   143  MET143      0.2261
    214  O         27.9840  -14.3700   11.0570 O.2   143  MET143     -0.2867
    215  CB        27.2000  -15.1520    8.1750 C.3   143  MET143      0.0387
    216  CG        28.4320  -15.4570    7.3050 C.3   143  MET143      0.0595
    217  SD        28.5530  -14.4450    5.8660 S.3   143  MET143     -0.1393
    218  CE        27.2260  -15.1150    4.8920 C.3   143  MET143      0.0692
    219  N         33.5130  -13.6820    7.8510 N.3   148  LEU148     -0.1245
    220  CA        33.4420  -12.4770    7.0520 C.3   148  LEU148      0.1561
    221  C         34.7510  -11.7270    7.1810 C.2   148  LEU148      0.2260
    222  O         35.1470  -10.9910    6.2880 O.2   148  LEU148     -0.2867
    223  CB        32.2920  -11.5900    7.5760 C.3   148  LEU148      0.0270
    224  CG        30.8550  -12.0350    7.3130 C.3   148  LEU148      0.0019
    225  CD1       29.8570  -11.4710    8.4180 C.3   148  LEU148      0.0001
    226  CD2       30.4480  -11.5700    5.9430 C.3   148  LEU148      0.0001
    227  N         33.6170   -5.4650    7.4900 N.3   159  MET159     -0.1245
    228  CA        32.4870   -5.8000    8.3670 C.3   159  MET159      0.1570
    229  C         32.7560   -5.3700    9.7870 C.2   159  MET159      0.2261
    230  O         31.8260   -5.0390   10.5130 O.2   159  MET159     -0.2867
    231  CB        32.1750   -7.3020    8.3340 C.3   159  MET159      0.0387
    232  CG        31.2190   -7.7130    7.2090 C.3   159  MET159      0.0595
    233  SD        29.7350   -6.6860    7.0010 S.3   159  MET159     -0.1393
    234  CE        28.8210   -7.1060    8.4760 C.3   159  MET159      0.0692
@<TRIPOS>BOND
     1    53    54    1
     2    60    58    1
     3    54    57    1
     4    54    55    1
     5    58    57    1
     6    58    59    1
     7    68    67    2
     8    61    55   am
     9    61    62    1
    10    67    69   am
    11    67    66    1
    12    55    56    2
    13    65    66    1
    14    65    62    1
    15    63    62    1
    16    63    64    2
    17    46    45    2
    18    45    44    1
    19   107   105   ar
    20   107   109   ar
    21    44    47    1
    22    44    43    1
    23    47    48    1
    24   105   104   ar
    25    76    75    1
    26    76    77    1
    27   109   108   ar
    28    80    78    1
    29    75    74    1
    30    43    36   am
    31    77    78    2
    32    78    79    1
    33    48    49   ar
    34    48    50   ar
    35    70    71    1
    36   104   103    1
    37   104   106   ar
    38    71    74    1
    39    71    72    1
    40    49    51   ar
    41   108   106   ar
    42    37    36    2
    43    36    35    1
    44   103   100    1
    45    34    35    1
    46    50    52   ar
    47    51    52   ar
    48    72    73    2
    49    72    81   am
    50   100    99    1
    51   100   101    1
    52    35    38    1
    53    25    23   ar
    54    89    90    1
    55    24    23   ar
    56    23    22    1
    57    81    82    1
    58    38    39    1
    59   102   101    2
    60    90    91    1
    61   101   110   am
    62    20    19    2
    63    29    28    2
    64    21    22    1
    65    21    18    1
    66   135   133   ar
    67    28    27    1
    68   132   133    1
    69   132   131    1
    70    19    18    1
    71   127   128    1
    72   133   134   ar
    73    91    92    2
    74    91    93   am
    75    83    82    1
    76    83    84    2
    77    82    85    1
    78   110   111    1
    79    39    40    1
    80    18    17    1
    81    33    31    1
    82   128   131    1
    83   128   129    1
    84    93    94    1
    85    95    96    2
    86    95    94    1
    87   123   124    2
    88   123   122    1
    89    27    26    1
    90    27    30    1
    91    41    40    1
    92    41    42    1
    93    16    14    1
    94    85    86    1
    95    85    87    1
    96   111   112    1
    97   111   114    1
    98   121   112   am
    99   121   122    1
   100    94    97    1
   101   125   122    1
   102   125   126    1
   103    31    30    1
   104    86    88    1
   105    14    15    1
   106    14    13    1
   107   112   113    2
   108   129   130    2
   109   129   136   am
   110    30    32    1
   111    12    11    2
   112    97    98    1
   113    11    10    1
   114   136   137    1
   115   114   115    1
   116    13    10    1
   117   138   137    1
   118   138   139    2
   119    10     9    1
   120   137   140    1
   121   116   115    1
   122   116   117    1
   123   148   146    1
   124   119   118    1
   125   210   208   ar
   126   117   118    2
   127   201   200    1
   128   146   145    1
   129   218   217    1
   130   118   120    1
   131     8     6    1
   132   200   197    1
   133   208   207    1
   134   208   209   ar
   135   147   145    1
   136   197   196    1
   137   197   198    1
   138   207   206    1
   139   145   142    1
   140     7     5    1
   141   217   216    1
   142   226   224    1
   143     6     5    1
   144   195   193    1
   145   196   190   am
   146   222   221    2
   147   198   199    2
   148   198   202   am
   149     5     2    1
   150   192   193    1
   151   192   194    1
   152   192   189    1
   153   233   232    1
   154   233   234    1
   155   220   221    1
   156   220   223    1
   157   220   219    1
   158   202   203    1
   159   232   231    1
   160   206   203    1
   161   216   215    1
   162   224   223    1
   163   224   225    1
   164   142   141    1
   165   142   143    1
   166   190   189    1
   167   190   191    2
   168   156   155    1
   169   227   228    1
   170   189   188    1
   171     2     3    1
   172     2     1    1
   173   203   204    1
   174   215   212    1
   175   143   144    2
   176   231   228    1
   177   228   229    1
   178     3     4    2
   179   155   154    1
   180   163   162    1
   181   188   182   am
   182   164   162    1
   183   204   205    2
   184   212   211    1
   185   212   213    1
   186   183   182    2
   187   178   177    1
   188   162   161    1
   189   229   230    2
   190   182   181    1
   191   171   170    1
   192   161   158    1
   193   153   154    1
   194   153   150    1
   195   213   214    2
   196   179   177    1
   197   157   158    1
   198   157   151   am
   199   176   175    2
   200   158   159    1
   201   177   174    1
   202   150   151    1
   203   150   149    1
   204   181   180    1
   205   181   184    1
   206   151   152    2
   207   170   172    1
   208   170   169    1
   209   175   180   am
   210   175   174    1
   211   174   173    1
   212   169   166    1
   213   184   185    1
   214   159   160    2
   215   166   167    1
   216   166   165    1
   217   185   187    1
   218   185   186    1
   219   168   167    2
