@<TRIPOS>MOLECULE
tmp/2hfpA01.pdb
 215 204 0 0 0
SMALL
GASTEIGER

@<TRIPOS>ATOM
      1  N         33.5320  -13.6480   -2.1390 N.3    73  ALA73      -0.1245
      2  CA        33.4980  -12.3110   -1.5440 C.3    73  ALA73       0.1562
      3  C         32.4980  -11.4450   -2.2610 C.2    73  ALA73       0.2260
      4  O         31.7640  -10.6990   -1.6250 O.2    73  ALA73      -0.2867
      5  CB        34.8630  -11.6460   -1.5240 C.3    73  ALA73       0.0290
      6  N         28.7370  -12.5690   -1.6840 N.3    76  ILE76      -0.1231
      7  CA        28.2770  -12.1580   -0.3470 C.3    76  ILE76       0.1692
      8  C         27.9040  -10.7000   -0.3920 C.2    76  ILE76       0.2592
      9  O         26.8480  -10.3040    0.1130 O.2    76  ILE76      -0.2718
     10  CB        29.3170  -12.4120    0.7720 C.3    76  ILE76       0.0266
     11  CG1       29.3400  -13.9190    1.1290 C.3    76  ILE76       0.0019
     12  CG2       28.9030  -11.6280    2.0660 C.3    76  ILE76       0.0020
     13  CD1       30.7490  -14.3950    1.5890 C.3    76  ILE76       0.0001
     14  N         28.7390   -9.9030   -1.0490 N.am   77  PHE77      -0.1976
     15  CA        28.4650   -8.4820   -1.2300 C.3    77  PHE77       0.1639
     16  C         27.2090   -8.2610   -2.0900 C.2    77  PHE77       0.2290
     17  O         26.3360   -7.4210   -1.7820 O.2    77  PHE77      -0.2864
     18  CB        29.6460   -7.7870   -1.9290 C.3    77  PHE77       0.0560
     19  CG        29.3050   -6.4100   -2.3590 C.ar   77  PHE77      -0.0200
     20  CD1       29.3640   -5.3640   -1.4420 C.ar   77  PHE77      -0.0042
     21  CD2       28.8290   -6.1630   -3.6390 C.ar   77  PHE77      -0.0042
     22  CE1       29.0150   -4.0740   -1.8030 C.ar   77  PHE77      -0.0003
     23  CE2       28.4690   -4.8770   -4.0060 C.ar   77  PHE77      -0.0003
     24  CZ        28.5610   -3.8300   -3.0840 C.ar   77  PHE77      -0.0000
     25  N         24.2470   -9.0750    0.1560 N.3    80  CYS80      -0.1221
     26  CA        23.8940   -7.9700    1.0640 C.3    80  CYS80       0.1808
     27  C         23.2120   -6.8430    0.3650 C.2    80  CYS80       0.2601
     28  O         22.3010   -6.2500    0.8970 O.2    80  CYS80      -0.2717
     29  CB        25.1220   -7.3520    1.7030 C.3    80  CYS80       0.0970
     30  SG        25.9000   -8.4710    2.7570 S.3    80  CYS80      -0.0800
     31  N         23.7220   -6.4570   -0.8060 N.am   81  GLN81      -0.1979
     32  CA        23.1710   -5.2940   -1.4890 C.3    81  GLN81       0.1601
     33  C         21.7880   -5.6350   -1.9690 C.2    81  GLN81       0.2287
     34  O         20.9050   -4.8000   -1.9740 O.2    81  GLN81      -0.2864
     35  CB        24.0450   -4.8670   -2.6710 C.3    81  GLN81       0.0394
     36  CG        23.6110   -5.5050   -3.9150 C.3    81  GLN81       0.0908
     37  CD        23.8890   -4.6340   -5.0700 C.2    81  GLN81       0.2608
     38  OE1       22.9920   -3.9910   -5.6020 O.2    81  GLN81      -0.2717
     39  NE2       25.1630   -4.5720   -5.4640 N.am   81  GLN81      -0.0878
     40  N         19.6600   -5.3310    1.0400 N.3    84  SER84      -0.1217
     41  CA        19.4850   -3.9060    1.3080 C.3    84  SER84       0.1889
     42  C         18.4070   -3.2660    0.4770 C.2    84  SER84       0.2288
     43  O         17.7770   -2.3090    0.8960 O.2    84  SER84      -0.2866
     44  CB        20.7760   -3.1630    1.0910 C.3    84  SER84       0.2089
     45  OG        21.6700   -3.5050    2.1320 O.3    84  SER84      -0.2183
     46  N         19.9230    4.5460    4.2060 N.3   118  HIS118     -0.1241
     47  CA        21.1400    3.9190    4.6800 C.3   118  HIS118      0.1621
     48  C         21.2740    3.9400    6.2090 C.2   118  HIS118      0.2264
     49  O         21.7910    2.9740    6.7950 O.2   118  HIS118     -0.2867
     50  CB        22.3860    4.5270    4.0590 C.3   118  HIS118      0.0745
     51  CG        22.6420    4.0750    2.6580 C.ar  118  HIS118      0.0817
     52  ND1       22.0090    4.6400    1.5710 N.ar  118  HIS118     -0.2268
     53  CD2       23.4780    3.1270    2.1620 C.ar  118  HIS118      0.1154
     54  CE1       22.4160    4.0310    0.4680 C.ar  118  HIS118      0.1986
     55  NE2       23.3130    3.1180    0.7960 N.ar  118  HIS118     -0.2212
     56  N         19.2950    1.3270    7.6150 N.3   121  ILE121     -0.1231
     57  CA        19.7290   -0.0350    7.3250 C.3   121  ILE121      0.1692
     58  C         20.7980   -0.3960    8.3180 C.2   121  ILE121      0.2592
     59  O         20.8150   -1.5270    8.8260 O.2   121  ILE121     -0.2718
     60  CB        20.1930   -0.2050    5.7900 C.3   121  ILE121      0.0266
     61  CG1       18.9670   -0.2920    4.8570 C.3   121  ILE121      0.0019
     62  CG2       21.1330   -1.4180    5.5840 C.3   121  ILE121      0.0020
     63  CD1       19.3170   -0.1330    3.3500 C.3   121  ILE121      0.0001
     64  N         21.6860    0.5600    8.6410 N.am  122  TYR122     -0.1976
     65  CA        22.6420    0.3320    9.6900 C.3   122  TYR122      0.1639
     66  C         21.9840    0.0300   11.0370 C.2   122  TYR122      0.2290
     67  O         22.4780   -0.7800   11.8130 O.2   122  TYR122     -0.2864
     68  CB        23.6080    1.5600    9.8160 C.3   122  TYR122      0.0560
     69  CG        24.7730    1.4870    8.8420 C.ar  122  TYR122     -0.0198
     70  CD1       25.9110    0.7360    9.1300 C.ar  122  TYR122     -0.0009
     71  CD2       24.7200    2.1450    7.6190 C.ar  122  TYR122     -0.0009
     72  CE1       26.9820    0.6600    8.2170 C.ar  122  TYR122      0.0417
     73  CE2       25.7850    2.0790    6.7050 C.ar  122  TYR122      0.0417
     74  CZ        26.9130    1.3420    7.0200 C.ar  122  TYR122      0.1957
     75  OH        27.9680    1.2730    6.1280 O.3   122  TYR122     -0.2866
     76  N         20.5140   -3.6330   10.7820 N.3   125  LEU125     -0.1245
     77  CA        21.6130   -4.5710   10.8290 C.3   125  LEU125      0.1561
     78  C         22.0450   -4.8490   12.2730 C.2   125  LEU125      0.2260
     79  O         22.3680   -5.9830   12.6230 O.2   125  LEU125     -0.2867
     80  CB        22.7820   -3.9680   10.0500 C.3   125  LEU125      0.0270
     81  CG        23.9110   -4.9410    9.7160 C.3   125  LEU125      0.0019
     82  CD1       23.4270   -6.0800    8.8290 C.3   125  LEU125      0.0001
     83  CD2       25.1930   -4.2110    9.1960 C.3   125  LEU125      0.0001
     84  N         33.5130  -13.6820    7.8510 N.3   148  LEU148     -0.1245
     85  CA        33.4420  -12.4770    7.0520 C.3   148  LEU148      0.1561
     86  C         34.7510  -11.7270    7.1810 C.2   148  LEU148      0.2260
     87  O         35.1470  -10.9910    6.2880 O.2   148  LEU148     -0.2867
     88  CB        32.2920  -11.5900    7.5760 C.3   148  LEU148      0.0270
     89  CG        30.8550  -12.0350    7.3130 C.3   148  LEU148      0.0019
     90  CD1       29.8570  -11.4710    8.4180 C.3   148  LEU148      0.0001
     91  CD2       30.4480  -11.5700    5.9430 C.3   148  LEU148      0.0001
     92  N         37.3340  -12.8770    4.4390 N.3   151  LEU151     -0.1245
     93  CA        37.2010  -12.6630    3.0160 C.3   151  LEU151      0.1561
     94  C         38.3780  -11.8380    2.4990 C.2   151  LEU151      0.2260
     95  O         38.9470  -11.0520    3.2460 O.2   151  LEU151     -0.2867
     96  CB        35.8310  -12.0440    2.6620 C.3   151  LEU151      0.0270
     97  CG        34.6270  -12.9660    3.0140 C.3   151  LEU151      0.0019
     98  CD1       33.3040  -12.2560    2.7490 C.3   151  LEU151      0.0001
     99  CD2       34.6980  -14.2890    2.1600 C.3   151  LEU151      0.0001
    100  N         37.4020   -6.7910    1.2290 N.3   155  PHE155     -0.1241
    101  CA        36.1250   -7.0780    1.9140 C.3   155  PHE155      0.1605
    102  C         36.2320   -7.4860    3.3850 C.2   155  PHE155      0.2264
    103  O         35.4060   -7.0740    4.2170 O.2   155  PHE155     -0.2867
    104  CB        35.3550   -8.1390    1.1270 C.3   155  PHE155      0.0534
    105  CG        35.0240   -7.7040   -0.2850 C.ar  155  PHE155     -0.0203
    106  CD1       33.8860   -6.9740   -0.5480 C.ar  155  PHE155     -0.0042
    107  CD2       35.8680   -8.0010   -1.3320 C.ar  155  PHE155     -0.0042
    108  CE1       33.5820   -6.5760   -1.8260 C.ar  155  PHE155     -0.0003
    109  CE2       35.5830   -7.5790   -2.6270 C.ar  155  PHE155     -0.0003
    110  CZ        34.4330   -6.8720   -2.8680 C.ar  155  PHE155     -0.0000
    111  N         36.1110   -4.9030    6.2330 N.3   158  PHE158     -0.1227
    112  CA        35.0040   -3.9480    6.1350 C.3   158  PHE158      0.1736
    113  C         33.7410   -4.2510    6.9620 C.2   158  PHE158      0.2595
    114  O         32.8890   -3.3900    7.1010 O.2   158  PHE158     -0.2718
    115  CB        34.6110   -3.7530    4.6730 C.3   158  PHE158      0.0547
    116  CG        35.6470   -3.0170    3.8680 C.ar  158  PHE158     -0.0202
    117  CD1       36.7030   -2.3620    4.5000 C.ar  158  PHE158     -0.0042
    118  CD2       35.5670   -2.9760    2.4870 C.ar  158  PHE158     -0.0042
    119  CE1       37.6590   -1.6870    3.7730 C.ar  158  PHE158     -0.0003
    120  CE2       36.5160   -2.2980    1.7600 C.ar  158  PHE158     -0.0003
    121  CZ        37.5650   -1.6550    2.4010 C.ar  158  PHE158     -0.0000
    122  N         33.6170   -5.4650    7.4900 N.am  159  MET159     -0.1979
    123  CA        32.4870   -5.8000    8.3670 C.3   159  MET159      0.1605
    124  C         32.7560   -5.3700    9.7870 C.2   159  MET159      0.2287
    125  O         31.8260   -5.0390   10.5130 O.2   159  MET159     -0.2864
    126  CB        32.1750   -7.3020    8.3340 C.3   159  MET159      0.0413
    127  CG        31.2190   -7.7130    7.2090 C.3   159  MET159      0.0598
    128  SD        29.7350   -6.6860    7.0010 S.3   159  MET159     -0.1393
    129  CE        28.8210   -7.1060    8.4760 C.3   159  MET159      0.0692
    130  N         33.7840   -2.7370   11.3960 N.3   161  PRO161     -0.2102
    131  CA        33.0250   -1.5140   11.7190 C.3   161  PRO161      0.1504
    132  C         31.5340   -1.6690   11.9560 C.2   161  PRO161      0.2575
    133  O         30.9860   -0.9780   12.8200 O.2   161  PRO161     -0.2718
    134  CB        33.2370   -0.6320   10.4890 C.3   161  PRO161      0.0282
    135  CG        34.5420   -1.0970    9.9250 C.3   161  PRO161      0.0208
    136  CD        34.5370   -2.5770   10.1310 C.3   161  PRO161      0.0893
    137  N         30.8820   -2.5090   11.1620 N.am  162  LYS162     -0.1980
    138  CA        29.4830   -2.8320   11.3850 C.3   162  LYS162      0.1596
    139  C         29.3010   -3.4290   12.7760 C.2   162  LYS162      0.2287
    140  O         28.4290   -2.9950   13.5150 O.2   162  LYS162     -0.2864
    141  CB        28.9890   -3.8180   10.3350 C.3   162  LYS162      0.0298
    142  CG        28.5080   -3.1620    9.0490 C.3   162  LYS162      0.0038
    143  CD        29.5900   -2.2830    8.5030 C.3   162  LYS162      0.0206
    144  CE        29.5840   -2.2810    7.0000 C.3   162  LYS162      0.1093
    145  NZ        30.8980   -1.7420    6.5830 N.3   162  LYS162     -0.1314
    146  N         30.8500    5.2470    4.3620 N.3   244  HIS244     -0.1241
    147  CA        30.4750    4.1480    3.4780 C.3   244  HIS244      0.1621
    148  C         30.3630    4.5500    1.9980 C.2   244  HIS244      0.2264
    149  O         30.7930    3.8240    1.1000 O.2   244  HIS244     -0.2867
    150  CB        29.1470    3.5300    3.9110 C.3   244  HIS244      0.0745
    151  CG        28.3890    2.8920    2.7800 C.ar  244  HIS244      0.0817
    152  ND1       28.7790    1.7090    2.1960 N.ar  244  HIS244     -0.2268
    153  CD2       27.2760    3.2870    2.1140 C.ar  244  HIS244      0.1154
    154  CE1       27.9500    1.3980    1.2190 C.ar  244  HIS244      0.1986
    155  NE2       27.0270    2.3420    1.1510 N.ar  244  HIS244     -0.2212
    156  N         33.7530    5.2070    0.5260 N.3   247  LEU247     -0.1231
    157  CA        34.4590    3.9540    0.3440 C.3   247  LEU247      0.1693
    158  C         33.9370    3.2300   -0.8720 C.2   247  LEU247      0.2591
    159  O         34.7100    2.7180   -1.6710 O.2   247  LEU247     -0.2718
    160  CB        34.2990    3.0790    1.5650 C.3   247  LEU247      0.0284
    161  CG        35.4280    2.1250    1.9400 C.3   247  LEU247      0.0019
    162  CD1       36.4200    2.8310    2.8520 C.3   247  LEU247      0.0001
    163  CD2       34.8700    0.8610    2.6040 C.3   247  LEU247      0.0001
    164  N         32.6210    3.1720   -1.0160 N.am  248  LEU248     -0.1980
    165  CA        32.0420    2.4320   -2.1180 C.3   248  LEU248      0.1596
    166  C         32.6640    2.9670   -3.3950 C.2   248  LEU248      0.2287
    167  O         33.0220    2.2220   -4.3010 O.2   248  LEU248     -0.2864
    168  CB        30.5480    2.6490   -2.2070 C.3   248  LEU248      0.0297
    169  CG        29.8650    1.6980   -3.1890 C.3   248  LEU248      0.0022
    170  CD1       30.5350    0.3160   -3.1350 C.3   248  LEU248      0.0001
    171  CD2       28.4300    1.5910   -2.8070 C.3   248  LEU248      0.0001
    172  N         36.2790    1.9080   -3.9090 N.3   251  ILE251     -0.1245
    173  CA        36.4260    0.4480   -4.0890 C.3   251  ILE251      0.1561
    174  C         35.8800   -0.0230   -5.4440 C.2   251  ILE251      0.2260
    175  O         36.4340   -0.9290   -6.0720 O.2   251  ILE251     -0.2867
    176  CB        35.7200   -0.3790   -2.9280 C.3   251  ILE251      0.0252
    177  CG1       36.4620   -0.2270   -1.5970 C.3   251  ILE251      0.0019
    178  CG2       35.6960   -1.8780   -3.2390 C.3   251  ILE251      0.0019
    179  CD1       36.4120    1.1530   -1.0250 C.3   251  ILE251      0.0001
    180  N         31.6540   -6.0490   -9.2070 N.3   258  MET258     -0.1245
    181  CA        30.7570   -5.3390   -8.2820 C.3   258  MET258      0.1570
    182  C         29.6700   -4.5470   -9.0550 C.2   258  MET258      0.2261
    183  O         29.9960   -3.6380   -9.8310 O.2   258  MET258     -0.2867
    184  CB        31.5950   -4.3500   -7.4590 C.3   258  MET258      0.0387
    185  CG        31.1970   -4.2250   -6.0060 C.3   258  MET258      0.0595
    186  SD        32.4780   -3.5380   -4.9160 S.3   258  MET258     -0.1393
    187  CE        33.2560   -5.0720   -4.4320 C.3   258  MET258      0.0692
    188  N         25.7260   -2.4830   -8.7840 N.3   260  LEU260     -0.1245
    189  CA        24.6360   -1.9760   -7.9560 C.3   260  LEU260      0.1561
    190  C         23.2770   -2.2020   -8.6040 C.2   260  LEU260      0.2260
    191  O         23.0950   -1.9750   -9.8200 O.2   260  LEU260     -0.2867
    192  CB        24.8190   -0.4850   -7.6410 C.3   260  LEU260      0.0270
    193  CG        26.0780   -0.1720   -6.8380 C.3   260  LEU260      0.0019
    194  CD1       26.2020    1.3120   -6.5720 C.3   260  LEU260      0.0001
    195  CD2       26.0790   -0.9830   -5.5520 C.3   260  LEU260      0.0001
    196  N         19.4740    1.0370   -5.9720 N.3   264  LEU264     -0.1245
    197  CA        20.5950    1.6210   -5.2260 C.3   264  LEU264      0.1561
    198  C         21.4050    2.6160   -6.0310 C.2   264  LEU264      0.2260
    199  O         22.0730    3.4790   -5.4730 O.2   264  LEU264     -0.2867
    200  CB        21.5510    0.5600   -4.7820 C.3   264  LEU264      0.0270
    201  CG        20.9290   -0.4950   -3.8780 C.3   264  LEU264      0.0019
    202  CD1       22.0380   -1.3620   -3.3890 C.3   264  LEU264      0.0001
    203  CD2       20.2640    0.1740   -2.7250 C.3   264  LEU264      0.0001
    204  N         22.2860    6.2710   -4.6740 N.3   268  TYR268     -0.1241
    205  CA        23.6660    6.7770   -4.5200 C.3   268  TYR268      0.1605
    206  C         23.9520    7.9730   -5.3760 C.2   268  TYR268      0.2264
    207  O         24.9040    8.6740   -5.1310 O.2   268  TYR268     -0.2867
    208  CB        24.6920    5.7200   -4.8550 C.3   268  TYR268      0.0534
    209  CG        24.8450    4.6830   -3.7880 C.ar  268  TYR268     -0.0201
    210  CD1       25.3680    5.0170   -2.5620 C.ar  268  TYR268     -0.0009
    211  CD2       24.4930    3.3580   -4.0140 C.ar  268  TYR268     -0.0009
    212  CE1       25.5260    4.0660   -1.5780 C.ar  268  TYR268      0.0417
    213  CE2       24.6450    2.3930   -3.0220 C.ar  268  TYR268      0.0417
    214  CZ        25.1570    2.7700   -1.8030 C.ar  268  TYR268      0.1957
    215  OH        25.3370    1.8500   -0.8080 O.3   268  TYR268     -0.2866
@<TRIPOS>BOND
     1   183   182    2
     2   191   190    2
     3   180   181    1
     4   182   181    1
     5   188   189    1
     6   190   189    1
     7   181   184    1
     8   189   192    1
     9   192   193    1
    10   184   185    1
    11   193   194    1
    12   193   195    1
    13   175   174    2
    14   198   199    2
    15   198   197    1
    16   185   186    1
    17   196   197    1
    18    38    37    2
    19    39    37   am
    20   174   173    1
    21   206   207    2
    22   206   205    1
    23   197   200    1
    24    37    36    1
    25   186   187    1
    26   208   205    1
    27   208   209    1
    28   200   201    1
    29   204   205    1
    30   167   166    2
    31   173   172    1
    32   173   176    1
    33   211   209   ar
    34   211   213   ar
    35    23    21   ar
    36    23    24   ar
    37    36    35    1
    38   201   202    1
    39   201   203    1
    40   209   210   ar
    41    21    19   ar
    42   166   165    1
    43   178   176    1
    44   169   170    1
    45   169   171    1
    46   169   168    1
    47    24    22   ar
    48   213   214   ar
    49   176   177    1
    50   110   109   ar
    51   110   108   ar
    52    35    32    1
    53   109   107   ar
    54   210   212   ar
    55    19    18    1
    56    19    20   ar
    57     3     4    2
    58     3     2    1
    59   168   165    1
    60     1     2    1
    61   165   164    1
    62    16    17    2
    63    16    15    1
    64    34    33    2
    65    33    32    1
    66    18    15    1
    67   108   106   ar
    68   214   212   ar
    69   214   215    1
    70    22    20   ar
    71     6     7    1
    72   159   158    2
    73   177   179    1
    74     2     5    1
    75    32    31    1
    76   107   105   ar
    77    15    14    1
    78    14     8   am
    79   164   158   am
    80   158   157    1
    81    31    27   am
    82   106   105   ar
    83     8     7    1
    84     8     9    2
    85     7    10    1
    86   105   104    1
    87    25    26    1
    88   157   156    1
    89   157   160    1
    90    27    28    2
    91    27    26    1
    92    54    55   ar
    93    54    52   ar
    94    42    43    2
    95    42    41    1
    96    10    11    1
    97    10    12    1
    98    55    53   ar
    99    40    41    1
   100    26    29    1
   101    44    41    1
   102    44    45    1
   103   149   148    2
   104   104   101    1
   105    11    13    1
   106   155   154   ar
   107   155   153   ar
   108   154   152   ar
   109   100   101    1
   110   160   161    1
   111    52    51   ar
   112    29    30    1
   113   120   121   ar
   114   120   118   ar
   115   101   102    1
   116   161   163    1
   117   161   162    1
   118   148   147    1
   119   153   151   ar
   120    99    97    1
   121    53    51   ar
   122   152   151   ar
   123   121   119   ar
   124   118   116   ar
   125    94    93    1
   126    94    95    2
   127    51    50    1
   128    96    97    1
   129    96    93    1
   130    98    97    1
   131   151   150    1
   132    93    92    1
   133    63    61    1
   134   102   103    2
   135   147   150    1
   136   147   146    1
   137   119   117   ar
   138   116   117   ar
   139   116   115    1
   140    50    47    1
   141    46    47    1
   142   115   112    1
   143    47    48    1
   144    61    60    1
   145    62    60    1
   146    60    57    1
   147    91    89    1
   148    75    74    1
   149   112   111    1
   150   112   113    1
   151    48    49    2
   152    87    86    2
   153   145   144    1
   154    73    74   ar
   155    73    71   ar
   156   113   114    2
   157   113   122   am
   158   144   143    1
   159   128   127    1
   160   128   129    1
   161    74    72   ar
   162    85    86    1
   163    85    88    1
   164    85    84    1
   165   127   126    1
   166    89    88    1
   167    89    90    1
   168    57    56    1
   169    57    58    1
   170   122   123    1
   171    71    69   ar
   172    72    70   ar
   173    58    64   am
   174    58    59    2
   175   126   123    1
   176   123   124    1
   177   143   142    1
   178    64    65    1
   179    82    81    1
   180    69    70   ar
   181    69    68    1
   182   142   141    1
   183    83    81    1
   184    65    68    1
   185    65    66    1
   186    81    80    1
   187   124   125    2
   188   135   136    1
   189   135   134    1
   190    80    77    1
   191   136   130    1
   192   141   138    1
   193   134   131    1
   194    76    77    1
   195    77    78    1
   196    66    67    2
   197   137   138    1
   198   137   132   am
   199   138   139    1
   200   130   131    1
   201   131   132    1
   202   132   133    2
   203    78    79    2
   204   139   140    2
