@<TRIPOS>MOLECULE
tmp/2hfuA00.pdb
 119 109 0 0 0
SMALL
GASTEIGER

@<TRIPOS>ATOM
      1  N         13.5040    2.0450    5.6390 N.3    18  LYS18      -0.1245
      2  CA        12.7610    1.5070    6.7770 C.3    18  LYS18       0.1561
      3  C         13.4800    1.7940    8.0900 C.2    18  LYS18       0.2260
      4  O         14.6950    1.6280    8.1780 O.2    18  LYS18      -0.2867
      5  CB        12.5930   -0.0110    6.6190 C.3    18  LYS18       0.0271
      6  CG        12.0590   -0.7170    7.8680 C.3    18  LYS18       0.0035
      7  CD        12.8940   -1.9360    8.2670 C.3    18  LYS18       0.0206
      8  CE        14.2960   -1.5560    8.7410 C.3    18  LYS18       0.1093
      9  NZ        14.9620   -2.6350    9.5210 N.3    18  LYS18      -0.1314
     10  N         12.6370    0.7170   12.3160 N.3    20  ILE20      -0.1245
     11  CA        11.7210    0.1560   13.3010 C.3    20  ILE20       0.1561
     12  C         11.5480    1.1590   14.4340 C.2    20  ILE20       0.2260
     13  O         12.5090    1.5160   15.1140 O.2    20  ILE20      -0.2867
     14  CB        12.1880   -1.2280   13.8040 C.3    20  ILE20       0.0252
     15  CG1       12.1070   -2.2540   12.6640 C.3    20  ILE20       0.0019
     16  CG2       11.3220   -1.6830   14.9790 C.3    20  ILE20       0.0019
     17  CD1       12.7140   -3.6170   12.9790 C.3    20  ILE20       0.0001
     18  N         11.2870   -4.0870   17.9620 N.3    24  GLU24      -0.1231
     19  CA        12.3570   -4.9990   17.5700 C.3    24  GLU24       0.1699
     20  C         12.5960   -6.0110   18.6940 C.2    24  GLU24       0.2592
     21  O         12.4770   -5.6760   19.8820 O.2    24  GLU24      -0.2718
     22  CB        13.6520   -4.2600   17.2180 C.3    24  GLU24       0.0402
     23  CG        14.1870   -3.3290   18.2960 C.3    24  GLU24       0.1161
     24  CD        13.6660   -1.9150   18.1400 C.2    24  GLU24       0.3649
     25  OE1       14.0800   -1.2350   17.1780 O.co2  24  GLU24      -0.2457
     26  OE2       12.8420   -1.4890   18.9710 O.co2  24  GLU24      -0.2457
     27  N         12.8950   -7.2440   18.2930 N.am   25  HIS25      -0.1976
     28  CA        13.1480   -8.3770   19.1920 C.3    25  HIS25       0.1656
     29  C         11.9170   -8.9330   19.9060 C.2    25  HIS25       0.2291
     30  O         11.7220  -10.1500   19.9440 O.2    25  HIS25      -0.2864
     31  CB        14.2830   -8.0820   20.1810 C.3    25  HIS25       0.0771
     32  CG        15.6240   -7.9760   19.5310 C.ar   25  HIS25       0.0820
     33  ND1       16.3420   -9.0800   19.1290 N.ar   25  HIS25      -0.2267
     34  CD2       16.3690   -6.8980   19.1910 C.ar   25  HIS25       0.1154
     35  CE1       17.4770   -8.6890   18.5790 C.ar   25  HIS25       0.1986
     36  NE2       17.5160   -7.3690   18.6020 N.ar   25  HIS25      -0.2212
     37  N          8.8580   -8.5040   18.9500 N.3    27  VAL27      -0.1231
     38  CA         7.9520   -8.9490   17.8890 C.3    27  VAL27       0.1692
     39  C          8.1410  -10.4370   17.5660 C.2    27  VAL27       0.2591
     40  O          7.1870  -11.1200   17.1790 O.2    27  VAL27      -0.2718
     41  CB         8.1080   -8.0770   16.6060 C.3    27  VAL27       0.0266
     42  CG1        9.5070   -8.2230   15.9960 C.3    27  VAL27       0.0020
     43  CG2        7.0140   -8.3840   15.5810 C.3    27  VAL27       0.0020
     44  N          9.3690  -10.9260   17.7400 N.am   28  VAL28      -0.1980
     45  CA         9.7070  -12.3350   17.5210 C.3    28  VAL28       0.1595
     46  C          8.9050  -13.2340   18.4670 C.2    28  VAL28       0.2287
     47  O          8.5920  -14.3850   18.1400 O.2    28  VAL28      -0.2864
     48  CB        11.2330  -12.5810   17.6940 C.3    28  VAL28       0.0276
     49  CG1       11.5950  -14.0580   17.4940 C.3    28  VAL28       0.0022
     50  CG2       12.0310  -11.6960   16.7300 C.3    28  VAL28       0.0022
     51  N         17.1400  -14.5530    7.9690 N.3   150  THR150     -0.1218
     52  CA        16.0480  -14.6030    6.9900 C.3   150  THR150      0.1862
     53  C         15.1630  -13.3440    7.0550 C.2   150  THR150      0.2287
     54  O         15.0540  -12.7220    8.1150 O.2   150  THR150     -0.2866
     55  CB        15.2210  -15.9050    7.2450 C.3   150  THR150      0.1770
     56  OG1       15.7840  -16.9870    6.4930 O.3   150  THR150     -0.2211
     57  CG2       13.7850  -15.8180    6.7130 C.3   150  THR150      0.0375
     58  N         11.9290  -11.2270    7.5600 N.3   152  SER152     -0.1217
     59  CA        10.6640  -11.3120    8.2820 C.3   152  SER152      0.1889
     60  C          9.5040  -10.8660    7.3990 C.2   152  SER152      0.2288
     61  O          8.3600  -11.2710    7.6140 O.2   152  SER152     -0.2866
     62  CB        10.7080  -10.4400    9.5340 C.3   152  SER152      0.2089
     63  OG        10.7740   -9.0670    9.1870 O.3   152  SER152     -0.2183
     64  N         10.8510   -5.5020    6.1350 N.3   155  ASP155     -0.1239
     65  CA        11.6830   -4.6480    5.2870 C.3   155  ASP155      0.1674
     66  C         11.0340   -4.4290    3.9240 C.2   155  ASP155      0.2266
     67  O         10.8170   -3.2890    3.5170 O.2   155  ASP155     -0.2867
     68  CB        13.0920   -5.2340    5.1220 C.3   155  ASP155      0.1410
     69  CG        13.9050   -5.2060    6.4100 C.2   155  ASP155      0.3668
     70  OD1       13.3360   -4.9110    7.4840 O.co2 155  ASP155     -0.2456
     71  OD2       15.1250   -5.4780    6.4440 O.co2 155  ASP155     -0.2456
     72  N          3.2590   -4.4140   12.5490 N.3   167  TYR167     -0.1241
     73  CA         3.8870   -5.6790   12.1950 C.3   167  TYR167      0.1605
     74  C          3.8260   -6.6340   13.3860 C.2   167  TYR167      0.2264
     75  O          4.3260   -6.3220   14.4710 O.2   167  TYR167     -0.2867
     76  CB         5.3250   -5.4100   11.7140 C.3   167  TYR167      0.0534
     77  CG         6.3690   -6.5050   11.9100 C.ar  167  TYR167     -0.0201
     78  CD1        7.6260   -6.1930   12.4370 C.ar  167  TYR167     -0.0009
     79  CD2        6.1250   -7.8300   11.5360 C.ar  167  TYR167     -0.0009
     80  CE1        8.6050   -7.1700   12.6060 C.ar  167  TYR167      0.0417
     81  CE2        7.0980   -8.8200   11.7060 C.ar  167  TYR167      0.0417
     82  CZ         8.3360   -8.4790   12.2430 C.ar  167  TYR167      0.1957
     83  OH         9.3020   -9.4450   12.4170 O.3   167  TYR167     -0.2866
     84  N          3.5580  -11.1840   14.4390 N.3   169  ARG169     -0.1245
     85  CA         3.5240  -12.5980   14.0810 C.3   169  ARG169      0.1563
     86  C          2.1780  -13.1730   14.5100 C.2   169  ARG169      0.2260
     87  O          1.8820  -13.2520   15.7050 O.2   169  ARG169     -0.2867
     88  CB         4.6680  -13.3510   14.7630 C.3   169  ARG169      0.0307
     89  CG         6.0430  -12.7320   14.5620 C.3   169  ARG169      0.0489
     90  CD         6.7490  -13.1550   13.2890 C.3   169  ARG169      0.2205
     91  NE         8.1190  -12.6480   13.2490 N.pl3 169  ARG169     -0.0865
     92  CZ         9.1120  -13.2080   12.5670 C.cat 169  ARG169      0.5346
     93  NH1        8.9050  -14.3140   11.8610 N.pl3 169  ARG169      0.1354
     94  NH2       10.3210  -12.6650   12.5980 N.pl3 169  ARG169      0.1354
     95  N         21.7720  -10.3020   12.9430 N.3   198  THR198     -0.1218
     96  CA        20.3910  -10.4440   13.3980 C.3   198  THR198      0.1862
     97  C         20.1450  -11.8250   14.0020 C.2   198  THR198      0.2287
     98  O         19.6220  -11.9310   15.1120 O.2   198  THR198     -0.2866
     99  CB        19.4010  -10.1600   12.2420 C.3   198  THR198      0.1770
    100  OG1       19.5200   -8.7900   11.8370 O.3   198  THR198     -0.2211
    101  CG2       17.9560  -10.2590   12.7270 C.3   198  THR198      0.0375
    102  N         19.1220  -12.3340   18.0010 N.3   202  VAL202     -0.1245
    103  CA        17.8230  -12.9750   18.2170 C.3   202  VAL202      0.1561
    104  C         17.9730  -14.2830   19.0100 C.2   202  VAL202      0.2260
    105  O         17.2370  -14.5120   19.9730 O.2   202  VAL202     -0.2867
    106  CB        17.0620  -13.1980   16.8690 C.3   202  VAL202      0.0252
    107  CG1       15.9130  -14.1920   17.0230 C.3   202  VAL202      0.0019
    108  CG2       16.5550  -11.8660   16.3100 C.3   202  VAL202      0.0019
    109  N         16.1260   -1.7370   15.3710 N.3   282  GLY282     -0.1210
    110  CA        16.3990   -2.9920   14.6820 C.3   282  GLY282      0.1956
    111  C         17.1340   -4.0050   15.5360 C.2   282  GLY282      0.2612
    112  O         16.7730   -4.2500   16.6920 O.2   282  GLY282     -0.2717
    113  N         18.1810   -4.5850   14.9600 N.am  283  THR283     -0.1952
    114  CA        18.9240   -5.6680   15.5940 C.3   283  THR283      0.1897
    115  C         19.6600   -5.2520   16.8710 C.2   283  THR283      0.2313
    116  O         19.7720   -6.0420   17.8090 O.2   283  THR283     -0.2863
    117  CB        19.8910   -6.3030   14.5720 C.3   283  THR283      0.1794
    118  OG1       19.1280   -7.0300   13.6050 O.3   283  THR283     -0.2208
    119  CG2       20.7590   -7.3820   15.2190 C.3   283  THR283      0.0378
@<TRIPOS>BOND
     1    67    66    2
     2    66    65    1
     3    68    65    1
     4    68    69    1
     5    65    64    1
     6     1     2    1
     7    69    71   ar
     8    69    70   ar
     9    56    55    1
    10     5     2    1
    11     5     6    1
    12    57    55    1
    13     2     3    1
    14    52    53    1
    15    52    55    1
    16    52    51    1
    17    53    54    2
    18    60    61    2
    19    60    59    1
    20    58    59    1
    21     6     7    1
    22     3     4    2
    23     7     8    1
    24    59    62    1
    25     8     9    1
    26    63    62    1
    27    79    81   ar
    28    79    77   ar
    29    81    82   ar
    30    76    77    1
    31    76    73    1
    32   100    99    1
    33    93    92    1
    34    77    78   ar
    35    73    72    1
    36    73    74    1
    37    99   101    1
    38    99    96    1
    39    82    83    1
    40    82    80   ar
    41    10    11    1
    42    78    80   ar
    43    92    94    1
    44    92    91    2
    45    15    17    1
    46    15    14    1
    47    95    96    1
    48    91    90    1
    49    90    89    1
    50    11    14    1
    51    11    12    1
    52    74    75    2
    53    96    97    1
    54   118   117    1
    55    14    16    1
    56    97    98    2
    57    85    84    1
    58    85    86    1
    59    85    88    1
    60    12    13    2
    61    86    87    2
    62    89    88    1
    63   117   119    1
    64   117   114    1
    65   110   109    1
    66   110   111    1
    67   113   111   am
    68   113   114    1
    69   111   112    2
    70    43    41    1
    71   114   115    1
    72    42    41    1
    73   108   106    1
    74    41    38    1
    75    50    48    1
    76   106   107    1
    77   106   103    1
    78   115   116    2
    79    25    24   ar
    80    40    39    2
    81    22    19    1
    82    22    23    1
    83    49    48    1
    84    45    48    1
    85    45    44    1
    86    45    46    1
    87    39    44   am
    88    39    38    1
    89    19    18    1
    90    19    20    1
    91    38    37    1
    92   102   103    1
    93    47    46    2
    94    24    23    1
    95    24    26   ar
    96   103   104    1
    97    27    20   am
    98    27    28    1
    99    35    36   ar
   100    35    33   ar
   101    36    34   ar
   102    20    21    2
   103   104   105    2
   104    33    32   ar
   105    34    32   ar
   106    28    29    1
   107    28    31    1
   108    32    31    1
   109    29    30    2
