@<TRIPOS>MOLECULE
tmp/2hg3C00.pdb
 108 104 0 0 0
SMALL
GASTEIGER

@<TRIPOS>ATOM
      1  N         70.0490   71.6890   77.5520 N.3    14  LEU14      -0.1245
      2  CA        69.5000   70.3690   77.1940 C.3    14  LEU14       0.1561
      3  C         69.5080   69.3690   78.3530 C.2    14  LEU14       0.2260
      4  O         68.5760   68.5930   78.5490 O.2    14  LEU14      -0.2867
      5  CB        70.2670   69.7870   76.0140 C.3    14  LEU14       0.0270
      6  CG        69.7990   68.4530   75.4100 C.3    14  LEU14       0.0019
      7  CD1       68.3930   68.5290   74.8600 C.3    14  LEU14       0.0001
      8  CD2       70.8010   68.0660   74.3230 C.3    14  LEU14       0.0001
      9  N         66.5340   70.4010   80.2910 N.3    17  LEU17      -0.1231
     10  CA        65.3350   70.0520   79.5890 C.3    17  LEU17       0.1693
     11  C         65.0080   68.5720   79.8470 C.2    17  LEU17       0.2591
     12  O         63.8750   68.2360   80.1950 O.2    17  LEU17      -0.2718
     13  CB        65.4980   70.3490   78.0830 C.3    17  LEU17       0.0284
     14  CG        64.2560   70.1340   77.2020 C.3    17  LEU17       0.0019
     15  CD1       63.0450   71.0240   77.6830 C.3    17  LEU17       0.0001
     16  CD2       64.6140   70.3180   75.6780 C.3    17  LEU17       0.0001
     17  N         66.0010   67.6990   79.7060 N.am   18  ILE18      -0.1980
     18  CA        65.7930   66.2750   79.8970 C.3    18  ILE18       0.1595
     19  C         65.3810   65.9790   81.3200 C.2    18  ILE18       0.2287
     20  O         64.4680   65.2180   81.5590 O.2    18  ILE18      -0.2864
     21  CB        67.0540   65.4820   79.5210 C.3    18  ILE18       0.0276
     22  CG1       67.2700   65.6400   78.0170 C.3    18  ILE18       0.0022
     23  CG2       66.9190   63.9840   79.8890 C.3    18  ILE18       0.0022
     24  CD1       68.4390   64.8800   77.5120 C.3    18  ILE18       0.0001
     25  N         61.8040   67.0520   81.5200 N.3    21  LEU21      -0.1231
     26  CA        60.9810   66.1270   80.7370 C.3    21  LEU21       0.1693
     27  C         60.7710   64.8020   81.4880 C.2    21  LEU21       0.2591
     28  O         59.6350   64.3060   81.5980 O.2    21  LEU21      -0.2718
     29  CB        61.5560   65.9000   79.3410 C.3    21  LEU21       0.0284
     30  CG        61.3130   66.9650   78.2770 C.3    21  LEU21       0.0019
     31  CD1       62.0490   66.5180   76.9420 C.3    21  LEU21       0.0001
     32  CD2       59.8240   67.1410   78.0420 C.3    21  LEU21       0.0001
     33  N         61.8480   64.2890   82.0620 N.am   22  GLN22      -0.1979
     34  CA        61.7630   63.0240   82.7380 C.3    22  GLN22       0.1601
     35  C         60.8840   63.1370   83.9590 C.2    22  GLN22       0.2287
     36  O         60.0360   62.2830   84.1700 O.2    22  GLN22      -0.2864
     37  CB        63.1470   62.5060   83.1240 C.3    22  GLN22       0.0394
     38  CG        63.1490   61.1050   83.7690 C.3    22  GLN22       0.0908
     39  CD        62.3370   60.0660   82.9800 C.2    22  GLN22       0.2608
     40  OE1       62.2690   60.0840   81.7230 O.2    22  GLN22      -0.2717
     41  NE2       61.7240   59.1500   83.7190 N.am   22  GLN22      -0.0878
     42  N         56.9840   61.3130   85.3640 N.3    26  MET26      -0.1245
     43  CA        56.7530   60.5400   86.5850 C.3    26  MET26       0.1570
     44  C         55.4570   60.9480   87.3270 C.2    26  MET26       0.2261
     45  O         55.2780   60.6510   88.5450 O.2    26  MET26      -0.2867
     46  CB        57.9780   60.6300   87.5100 C.3    26  MET26       0.0387
     47  CG        59.2070   60.1930   86.8190 C.3    26  MET26       0.0595
     48  SD        60.7570   60.6460   87.6010 S.3    26  MET26      -0.1393
     49  CE        60.4810   60.2010   89.3400 C.3    26  MET26       0.0692
     50  N         54.4100   56.3770   89.9020 N.3    30  TYR30      -0.1241
     51  CA        55.4750   56.5730   90.8690 C.3    30  TYR30       0.1605
     52  C         54.7850   57.0600   92.1390 C.2    30  TYR30       0.2264
     53  O         53.7090   57.6430   92.0340 O.2    30  TYR30      -0.2867
     54  CB        56.4870   57.6220   90.3960 C.3    30  TYR30       0.0534
     55  CG        57.4240   57.1670   89.2990 C.ar   30  TYR30      -0.0201
     56  CD1       56.9750   57.0400   88.0070 C.ar   30  TYR30      -0.0009
     57  CD2       58.7670   56.8680   89.5600 C.ar   30  TYR30      -0.0009
     58  CE1       57.8280   56.6190   86.9790 C.ar   30  TYR30       0.0417
     59  CE2       59.6250   56.4420   88.5400 C.ar   30  TYR30       0.0417
     60  CZ        59.1430   56.3050   87.2410 C.ar   30  TYR30       0.1957
     61  OH        59.9340   55.8540   86.1780 O.3    30  TYR30      -0.2866
     62  N         57.8250   54.1840   92.7550 N.3    32  LEU32      -0.1245
     63  CA        57.9360   52.7580   92.4200 C.3    32  LEU32       0.1561
     64  C         57.6540   51.8490   93.6260 C.2    32  LEU32       0.2260
     65  O         57.7970   52.2390   94.7900 O.2    32  LEU32      -0.2867
     66  CB        59.3190   52.4130   91.8970 C.3    32  LEU32       0.0270
     67  CG        59.7720   53.1730   90.6630 C.3    32  LEU32       0.0019
     68  CD1       61.1530   52.6280   90.2280 C.3    32  LEU32       0.0001
     69  CD2       58.7050   53.1340   89.5550 C.3    32  LEU32       0.0001
     70  N         64.7980   51.8900   96.1480 N.3    42  ASN42      -0.1225
     71  CA        65.5580   52.6820   95.2110 C.3    42  ASN42       0.1785
     72  C         64.5880   53.2290   94.2190 C.2    42  ASN42       0.2597
     73  O         64.1170   52.4990   93.3260 O.2    42  ASN42      -0.2718
     74  CB        66.6680   51.8750   94.5130 C.3    42  ASN42       0.1169
     75  CG        67.2610   52.6170   93.2880 C.2    42  ASN42       0.2627
     76  OD1       67.7070   53.7770   93.3870 O.2    42  ASN42      -0.2716
     77  ND2       67.2290   51.9570   92.1160 N.am   42  ASN42      -0.0877
     78  N         64.3030   54.5230   94.3910 N.am   43  GLN43      -0.1965
     79  CA        63.3780   55.2700   93.5200 C.3    43  GLN43       0.1733
     80  C         64.0270   55.8880   92.2920 C.2    43  GLN43       0.2617
     81  O         63.3380   56.3990   91.4580 O.2    43  GLN43      -0.2715
     82  CB        62.6820   56.3620   94.3190 C.3    43  GLN43       0.0408
     83  CG        61.7860   55.8310   95.3530 C.3    43  GLN43       0.0908
     84  CD        60.5950   55.1240   94.7610 C.2    43  GLN43       0.2608
     85  OE1       60.1300   55.5150   93.6980 O.2    43  GLN43      -0.2717
     86  NE2       60.0920   54.0700   95.4420 N.am   43  GLN43      -0.0878
     87  N         65.3330   55.8420   92.1620 N.am   44  GLY44      -0.1941
     88  CA        66.0000   56.5650   91.0670 C.3    44  GLY44       0.1998
     89  C         66.5300   57.9360   91.4700 C.2    44  GLY44       0.2481
     90  O         66.2520   58.4400   92.5650 O.2    44  GLY44      -0.2729
     91  N         67.3090   58.5560   90.5960 N.am   45  PRO45      -0.2715
     92  CA        67.8610   59.8640   90.9200 C.3    45  PRO45       0.1536
     93  C         66.9460   61.0370   90.5830 C.2    45  PRO45       0.2598
     94  O         67.2800   62.1590   90.9590 O.2    45  PRO45      -0.2715
     95  CB        69.1020   59.9290   90.0470 C.3    45  PRO45       0.0310
     96  CG        68.7070   59.1970   88.8110 C.3    45  PRO45       0.0237
     97  CD        67.7350   58.0950   89.2650 C.3    45  PRO45       0.0939
     98  N         65.8430   60.8090   89.8670 N.am   46  PHE46      -0.1974
     99  CA        64.9090   61.8850   89.5710 C.3    46  PHE46       0.1639
    100  C         63.8210   61.9210   90.6320 C.2    46  PHE46       0.2290
    101  O         63.1670   60.9260   90.8670 O.2    46  PHE46      -0.2864
    102  CB        64.2510   61.6510   88.2380 C.3    46  PHE46       0.0560
    103  CG        65.1820   61.7330   87.0840 C.ar   46  PHE46      -0.0200
    104  CD1       65.5000   62.9580   86.5220 C.ar   46  PHE46      -0.0042
    105  CD2       65.7300   60.5920   86.5430 C.ar   46  PHE46      -0.0042
    106  CE1       66.3720   63.0390   85.4380 C.ar   46  PHE46      -0.0003
    107  CE2       66.5920   60.6680   85.4800 C.ar   46  PHE46      -0.0003
    108  CZ        66.9150   61.8930   84.9220 C.ar   46  PHE46      -0.0000
@<TRIPOS>BOND
     1     8     6    1
     2     7     6    1
     3     6     5    1
     4    16    14    1
     5     5     2    1
     6    31    30    1
     7     2     1    1
     8     2     3    1
     9    14    15    1
    10    14    13    1
    11    24    22    1
    12    22    21    1
    13    32    30    1
    14    13    10    1
    15    30    29    1
    16     3     4    2
    17    29    26    1
    18    21    23    1
    19    21    18    1
    20    10    11    1
    21    10     9    1
    22    17    11   am
    23    17    18    1
    24    11    12    2
    25    18    19    1
    26    26    27    1
    27    26    25    1
    28    19    20    2
    29    27    28    2
    30    27    33   am
    31    40    39    2
    32    33    34    1
    33    34    37    1
    34    34    35    1
    35    39    41   am
    36    39    38    1
    37    37    38    1
    38    35    36    2
    39   108   106   ar
    40   108   107   ar
    41    42    43    1
    42   106   104   ar
    43   107   105   ar
    44    61    60    1
    45   104   103   ar
    46   105   103   ar
    47    43    44    1
    48    43    46    1
    49    47    46    1
    50    47    48    1
    51    58    60   ar
    52    58    56   ar
    53   103   102    1
    54    60    59   ar
    55    44    45    2
    56    48    49    1
    57    56    55   ar
    58   102    99    1
    59    59    57   ar
    60    96    97    1
    61    96    95    1
    62    97    91    1
    63    55    57   ar
    64    55    54    1
    65    69    67    1
    66    99    98    1
    67    99   100    1
    68    98    93   am
    69    50    51    1
    70    95    92    1
    71    68    67    1
    72    54    51    1
    73    93    92    1
    74    93    94    2
    75    91    92    1
    76    91    89   am
    77   100   101    2
    78    67    66    1
    79    51    52    1
    80    88    89    1
    81    88    87    1
    82    81    80    2
    83    89    90    2
    84    66    63    1
    85    53    52    2
    86    77    75   am
    87    87    80   am
    88    80    79    1
    89    63    62    1
    90    63    64    1
    91    75    76    2
    92    75    74    1
    93    73    72    2
    94    79    82    1
    95    79    78    1
    96    64    65    2
    97    85    84    2
    98    72    78   am
    99    72    71    1
   100    82    83    1
   101    74    71    1
   102    84    83    1
   103    84    86   am
   104    71    70    1
