@<TRIPOS>MOLECULE
tmp/2hg9B12.pdb
 118 114 0 0 0
SMALL
GASTEIGER

@<TRIPOS>ATOM
      1  N         29.9990   71.3390   63.4610 N.3    18  LEU18      -0.1245
      2  CA        30.2080   72.7600   63.2990 C.3    18  LEU18       0.1561
      3  C         31.1700   73.2820   64.3610 C.2    18  LEU18       0.2260
      4  O         31.5810   74.4240   64.3090 O.2    18  LEU18      -0.2867
      5  CB        28.8510   73.4710   63.3710 C.3    18  LEU18       0.0270
      6  CG        27.9260   73.1430   62.1820 C.3    18  LEU18       0.0019
      7  CD1       26.6480   73.9610   62.2280 C.3    18  LEU18       0.0001
      8  CD2       28.6300   73.3280   60.8320 C.3    18  LEU18       0.0001
      9  N         31.4590   83.5180   65.5680 N.3    26  LEU26      -0.1231
     10  CA        30.8580   82.6030   64.5720 C.3    26  LEU26       0.1693
     11  C         30.5300   83.2350   63.2180 C.2    26  LEU26       0.2592
     12  O         30.3450   82.5020   62.2230 O.2    26  LEU26      -0.2718
     13  CB        29.5670   81.9880   65.1110 C.3    26  LEU26       0.0284
     14  CG        29.6070   81.1720   66.4070 C.3    26  LEU26       0.0019
     15  CD1       28.2240   80.5400   66.6610 C.3    26  LEU26       0.0001
     16  CD2       30.7010   80.1180   66.3740 C.3    26  LEU26       0.0001
     17  N         30.4390   84.5680   63.1690 N.am   27  ALA27      -0.1966
     18  CA        30.2530   85.2510   61.8980 C.3    27  ALA27       0.1728
     19  C         31.4330   84.9630   60.9580 C.2    27  ALA27       0.2616
     20  O         31.2900   85.0770   59.7440 O.2    27  ALA27      -0.2715
     21  CB        30.0810   86.7600   62.0970 C.3    27  ALA27       0.0334
     22  N         32.5990   84.5950   61.4990 N.am   28  ASN28      -0.1958
     23  CA        33.7480   84.3560   60.6330 C.3    28  ASN28       0.1819
     24  C         33.9730   82.8900   60.2520 C.2    28  ASN28       0.2621
     25  O         34.9660   82.5800   59.6130 O.2    28  ASN28      -0.2715
     26  CB        35.0140   84.9950   61.2290 C.3    28  ASN28       0.1195
     27  CG        34.9160   86.5230   61.2960 C.2    28  ASN28       0.2630
     28  OD1       35.5270   87.1940   62.1370 O.2    28  ASN28      -0.2716
     29  ND2       34.1300   87.0640   60.4170 N.am   28  ASN28      -0.0877
     30  N         33.0710   81.9750   60.5990 N.am   29  ARG29      -0.1963
     31  CA        33.2820   80.6030   60.1160 C.3    29  ARG29       0.1729
     32  C         32.5000   80.4170   58.8500 C.2    29  ARG29       0.2617
     33  O         31.3510   80.7830   58.7840 O.2    29  ARG29      -0.2715
     34  CB        32.8400   79.5070   61.0900 C.3    29  ARG29       0.0348
     35  CG        33.5690   79.4710   62.3700 C.3    29  ARG29       0.0492
     36  CD        33.2500   78.2180   63.1550 C.3    29  ARG29       0.2205
     37  NE        34.2470   78.0360   64.2000 N.pl3  29  ARG29      -0.0865
     38  CZ        34.0220   77.6040   65.4440 C.cat  29  ARG29       0.5346
     39  NH1       32.7970   77.3050   65.8930 N.pl3  29  ARG29       0.1354
     40  NH2       35.0560   77.5280   66.2610 N.pl3  29  ARG29       0.1354
     41  N         33.1350   79.7730   57.8850 N.am   30  SER30      -0.1936
     42  CA        32.4650   79.2420   56.7130 C.3    30  SER30       0.2055
     43  C         31.4100   78.2020   57.0890 C.2    30  SER30       0.2644
     44  O         31.3090   77.7740   58.2460 O.2    30  SER30      -0.2714
     45  CB        33.4960   78.5460   55.8120 C.3    30  SER30       0.2130
     46  OG        33.9550   77.3380   56.3980 O.3    30  SER30      -0.2179
     47  N         30.6250   77.7870   56.0970 N.am   31  GLY31      -0.1939
     48  CA        29.8740   76.5390   56.2170 C.3    31  GLY31       0.2014
     49  C         30.8430   75.3960   56.0090 C.2    31  GLY31       0.2639
     50  O         32.0000   75.6220   55.6310 O.2    31  GLY31      -0.2714
     51  N         30.3870   74.1760   56.2620 N.am   32  VAL32      -0.1963
     52  CA        31.2090   73.0020   56.0100 C.3    32  VAL32       0.1727
     53  C         31.4320   72.7850   54.5420 C.2    32  VAL32       0.2617
     54  O         30.5660   73.0810   53.7330 O.2    32  VAL32      -0.2715
     55  CB        30.5950   71.6660   56.5070 C.3    32  VAL32       0.0290
     56  CG1       31.2120   71.2540   57.8050 C.3    32  VAL32       0.0023
     57  CG2       29.0510   71.7210   56.5230 C.3    32  VAL32       0.0023
     58  N         32.6040   72.2280   54.2200 N.am   33  GLY33      -0.1941
     59  CA        32.9200   71.7870   52.8620 C.3    33  GLY33       0.1998
     60  C         32.3290   70.4140   52.6410 C.2    33  GLY33       0.2480
     61  O         31.5830   69.9230   53.5030 O.2    33  GLY33      -0.2729
     62  N         32.6930   69.7600   51.5250 N.am   34  PRO34      -0.2726
     63  CA        32.2230   68.4120   51.2420 C.3    34  PRO34       0.1402
     64  C         32.8540   67.3810   52.1950 C.2    34  PRO34       0.2269
     65  O         33.7690   67.7110   52.9550 O.2    34  PRO34      -0.2865
     66  CB        32.7060   68.1710   49.8280 C.3    34  PRO34       0.0296
     67  CG        34.0190   68.9470   49.7690 C.3    34  PRO34       0.0237
     68  CD        33.6770   70.2150   50.5240 C.3    34  PRO34       0.0939
     69  N         35.5450   68.1380   55.6390 N.3    47  LEU47      -0.1231
     70  CA        36.2920   69.3150   55.2970 C.3    47  LEU47       0.1693
     71  C         35.5190   70.5450   55.7710 C.2    47  LEU47       0.2592
     72  O         34.2830   70.6160   55.6560 O.2    47  LEU47      -0.2718
     73  CB        36.4800   69.3820   53.7780 C.3    47  LEU47       0.0284
     74  CG        37.5110   68.4430   53.0960 C.3    47  LEU47       0.0019
     75  CD1       37.5370   68.6580   51.5650 C.3    47  LEU47       0.0001
     76  CD2       38.9260   68.5730   53.6670 C.3    47  LEU47       0.0001
     77  N         36.2550   71.5220   56.2990 N.am   48  GLY48      -0.1957
     78  CA        35.6840   72.7410   56.8530 C.3    48  GLY48       0.1869
     79  C         34.8640   72.4720   58.1190 C.2    48  GLY48       0.2309
     80  O         34.8730   71.3710   58.6490 O.2    48  GLY48      -0.2863
     81  N         36.1240   76.5350   57.9510 N.3    50  ILE50      -0.1245
     82  CA        37.3560   77.2510   58.2670 C.3    50  ILE50       0.1561
     83  C         36.9390   78.5820   58.8360 C.2    50  ILE50       0.2260
     84  O         35.8650   79.0290   58.5480 O.2    50  ILE50      -0.2867
     85  CB        38.2520   77.4540   57.0430 C.3    50  ILE50       0.0252
     86  CG1       39.6510   77.9720   57.4840 C.3    50  ILE50       0.0019
     87  CG2       37.5930   78.3690   56.0290 C.3    50  ILE50       0.0019
     88  CD1       40.7440   77.7310   56.4520 C.3    50  ILE50       0.0001
     89  N         37.6750   82.4870   58.8880 N.3    52  LEU52      -0.1245
     90  CA        38.4650   83.4970   58.2350 C.3    52  LEU52       0.1561
     91  C         38.0000   84.8550   58.6560 C.2    52  LEU52       0.2260
     92  O         37.1050   85.3940   58.0450 O.2    52  LEU52      -0.2867
     93  CB        38.4070   83.3630   56.6890 C.3    52  LEU52       0.0270
     94  CG        39.5070   82.5640   55.9040 C.3    52  LEU52       0.0019
     95  CD1       39.8370   83.2750   54.5480 C.3    52  LEU52       0.0001
     96  CD2       40.8370   82.3360   56.6360 C.3    52  LEU52       0.0001
     97  N         46.3060   85.1820   53.7790 N.3    60  LEU60      -0.1245
     98  CA        46.0600   84.5100   52.4840 C.3    60  LEU60       0.1561
     99  C         46.3210   85.4290   51.3070 C.2    60  LEU60       0.2260
    100  O         46.9700   85.0380   50.3390 O.2    60  LEU60      -0.2867
    101  CB        44.6000   84.0480   52.3430 C.3    60  LEU60       0.0270
    102  CG        44.1130   82.8160   53.1100 C.3    60  LEU60       0.0019
    103  CD1       44.6880   82.7160   54.5230 C.3    60  LEU60       0.0001
    104  CD2       42.5820   82.8080   53.1480 C.3    60  LEU60       0.0001
    105  N         49.8920   84.7560   59.9660 N.3   129  TRP129     -0.1241
    106  CA        49.4880   83.3680   60.1870 C.3   129  TRP129      0.1605
    107  C         49.8890   82.9270   61.5950 C.2   129  TRP129      0.2264
    108  O         49.1350   82.2590   62.3000 O.2   129  TRP129     -0.2867
    109  CB        50.1160   82.4050   59.1580 C.3   129  TRP129      0.0550
    110  CG        49.4400   81.1110   59.1570 C.ar  129  TRP129      0.0003
    111  CD1       49.7770   79.9900   59.8650 C.ar  129  TRP129      0.0946
    112  CD2       48.2430   80.8140   58.4770 C.ar  129  TRP129      0.0152
    113  NE1       48.8680   78.9930   59.6320 N.ar  129  TRP129     -0.2442
    114  CE2       47.9060   79.4780   58.7850 C.ar  129  TRP129      0.0810
    115  CE3       47.4010   81.5530   57.6600 C.ar  129  TRP129      0.0012
    116  CZ2       46.7440   78.8660   58.2940 C.ar  129  TRP129      0.0191
    117  CZ3       46.2670   80.9470   57.1490 C.ar  129  TRP129      0.0001
    118  CH2       45.9540   79.6100   57.4610 C.ar  129  TRP129      0.0015
@<TRIPOS>BOND
     1    67    66    1
     2    67    68    1
     3    66    63    1
     4   100    99    2
     5    68    62    1
     6    63    62    1
     7    63    64    1
     8    99    98    1
     9    62    60   am
    10    75    74    1
    11    64    65    2
    12   101    98    1
    13   101   102    1
    14    98    97    1
    15    60    59    1
    16    60    61    2
    17    59    58    1
    18    74    76    1
    19    74    73    1
    20   102   104    1
    21   102   103    1
    22    54    53    2
    23    73    70    1
    24    58    53   am
    25    53    52    1
    26    95    94    1
    27    70    69    1
    28    70    71    1
    29    50    49    2
    30    72    71    2
    31    71    77   am
    32    45    46    1
    33    45    42    1
    34    94    96    1
    35    94    93    1
    36    49    48    1
    37    49    51   am
    38    52    51    1
    39    52    55    1
    40    87    85    1
    41    47    48    1
    42    47    43   am
    43    77    78    1
    44    88    86    1
    45    55    57    1
    46    55    56    1
    47    93    90    1
    48    42    43    1
    49    42    41    1
    50    78    79    1
    51    85    86    1
    52    85    82    1
    53    43    44    2
    54   117   118   ar
    55   117   115   ar
    56   118   116   ar
    57   115   112   ar
    58    41    32   am
    59    81    82    1
    60    92    91    2
    61    79    80    2
    62    90    91    1
    63    90    89    1
    64    82    83    1
    65   116   114   ar
    66   112   114   ar
    67   112   110   ar
    68    84    83    2
    69    33    32    2
    70   114   113   ar
    71    32    31    1
    72   110   109    1
    73   110   111   ar
    74   109   106    1
    75    25    24    2
    76   113   111   ar
    77    20    19    2
    78   105   106    1
    79    31    30    1
    80    31    34    1
    81   106   107    1
    82    24    30   am
    83    24    23    1
    84    29    27   am
    85    23    26    1
    86    23    22    1
    87     8     6    1
    88    19    22   am
    89    19    18    1
    90    34    35    1
    91    26    27    1
    92    27    28    2
    93   107   108    2
    94    18    21    1
    95    18    17    1
    96     6     7    1
    97     6     5    1
    98    12    11    2
    99    35    36    1
   100    36    37    1
   101    17    11   am
   102    11    10    1
   103     2     5    1
   104     2     1    1
   105     2     3    1
   106    37    38    2
   107     4     3    2
   108    10    13    1
   109    10     9    1
   110    13    14    1
   111    38    39    1
   112    38    40    1
   113    16    14    1
   114    14    15    1
