@<TRIPOS>MOLECULE
tmp/2hgsA01.pdb
 158 148 0 0 0
SMALL
GASTEIGER

@<TRIPOS>ATOM
      1  N         45.9460   -1.6250   24.2190 N.3   123  ARG123     -0.1245
      2  CA        47.2360   -1.7110   23.5470 C.3   123  ARG123      0.1563
      3  C         48.3250   -1.4650   24.6050 C.2   123  ARG123      0.2260
      4  O         48.2360   -0.4380   25.2450 O.2   123  ARG123     -0.2867
      5  CB        47.3640   -0.7090   22.3710 C.3   123  ARG123      0.0307
      6  CG        48.5180   -1.0730   21.4710 C.3   123  ARG123      0.0489
      7  CD        48.8870   -0.0220   20.4190 C.3   123  ARG123      0.2205
      8  NE        49.2340    1.2030   21.0660 N.pl3 123  ARG123     -0.0865
      9  CZ        48.4740    2.2960   21.1680 C.cat 123  ARG123      0.5346
     10  NH1       47.3460    2.3070   20.4890 N.pl3 123  ARG123      0.1354
     11  NH2       48.8680    3.3600   21.8780 N.pl3 123  ARG123      0.1354
     12  N         47.3850    1.0660   27.3160 N.3   144  ASN144     -0.1240
     13  CA        46.2670    1.9780   26.9110 C.3   144  ASN144      0.1653
     14  C         44.9580    1.2150   26.9760 C.2   144  ASN144      0.2266
     15  O         44.7800    0.2990   26.1700 O.2   144  ASN144     -0.2867
     16  CB        46.5810    2.4240   25.4700 C.3   144  ASN144      0.1155
     17  CG        47.6800    3.4690   25.4470 C.2   144  ASN144      0.2627
     18  OD1       47.3870    4.6000   25.8450 O.2   144  ASN144     -0.2716
     19  ND2       48.8710    3.1380   24.9860 N.am  144  ASN144     -0.0877
     20  N         41.7000    2.7920   27.1200 N.3   146  ILE146     -0.1231
     21  CA        40.5580    3.4680   26.5280 C.3   146  ILE146      0.1692
     22  C         40.8910    3.9410   25.0950 C.2   146  ILE146      0.2593
     23  O         41.9490    4.5280   24.8400 O.2   146  ILE146     -0.2718
     24  CB        40.0810    4.6410   27.3450 C.3   146  ILE146      0.0266
     25  CG1       39.0560    5.4800   26.5700 C.3   146  ILE146      0.0019
     26  CG2       41.2440    5.5130   27.8140 C.3   146  ILE146      0.0020
     27  CD1       38.2100    6.2520   27.5950 C.3   146  ILE146      0.0001
     28  N         40.0130    3.7140   24.0950 N.am  147  SER147     -0.1938
     29  CA        40.2290    4.1780   22.7160 C.3   147  SER147      0.2055
     30  C         41.5530    3.8160   22.0900 C.2   147  SER147      0.2643
     31  O         42.2620    4.6550   21.5170 O.2   147  SER147     -0.2714
     32  CB        40.0490    5.7010   22.7380 C.3   147  SER147      0.2130
     33  OG        40.0860    6.2110   21.3760 O.3   147  SER147     -0.2179
     34  N         41.9530    2.5600   22.2570 N.am  148  ALA148     -0.1963
     35  CA        43.2350    2.0410   21.7930 C.3   148  ALA148      0.1728
     36  C         43.1820    2.0310   20.2580 C.2   148  ALA148      0.2617
     37  O         42.5250    1.1460   19.6680 O.2   148  ALA148     -0.2715
     38  CB        43.3970    0.6080   22.2620 C.3   148  ALA148      0.0334
     39  N         43.8320    3.0210   19.7040 N.am  149  SER149     -0.1936
     40  CA        43.7100    3.1490   18.2480 C.3   149  SER149      0.2055
     41  C         44.8270    2.7360   17.3210 C.2   149  SER149      0.2643
     42  O         45.9540    2.3860   17.6880 O.2   149  SER149     -0.2714
     43  CB        43.4170    4.6370   18.0700 C.3   149  SER149      0.2130
     44  OG        42.3110    5.1100   18.8230 O.3   149  SER149     -0.2179
     45  N         44.4920    2.8460   16.0230 N.am  150  PHE150     -0.1973
     46  CA        45.3880    2.5870   14.9140 C.3   150  PHE150      0.1639
     47  C         45.5460    1.1560   14.5060 C.2   150  PHE150      0.2290
     48  O         46.3720    0.8190   13.6480 O.2   150  PHE150     -0.2864
     49  CB        46.7190    3.3260   15.0220 C.3   150  PHE150      0.0560
     50  CG        46.5350    4.8010   14.8170 C.ar  150  PHE150     -0.0200
     51  CD1       46.3040    5.2860   13.5230 C.ar  150  PHE150     -0.0042
     52  CD2       46.5860    5.6940   15.8470 C.ar  150  PHE150     -0.0042
     53  CE1       46.1480    6.6550   13.3210 C.ar  150  PHE150     -0.0003
     54  CE2       46.3880    7.0540   15.6440 C.ar  150  PHE150     -0.0003
     55  CZ        46.1810    7.5370   14.3800 C.ar  150  PHE150     -0.0000
     56  N         33.7010   11.9100   18.5640 N.3   209  GLN209     -0.1245
     57  CA        33.4020   13.3190   18.3520 C.3   209  GLN209      0.1566
     58  C         33.1800   13.5180   16.8240 C.2   209  GLN209      0.2260
     59  O         33.6150   12.6720   16.0180 O.2   209  GLN209     -0.2867
     60  CB        34.7180   14.0560   18.6130 C.3   209  GLN209      0.0367
     61  CG        34.8080   14.6310   20.0310 C.3   209  GLN209      0.0905
     62  CD        36.1460   15.3690   20.0820 C.2   209  GLN209      0.2608
     63  OE1       36.2660   16.4810   19.5450 O.2   209  GLN209     -0.2717
     64  NE2       37.1090   14.6620   20.6520 N.am  209  GLN209     -0.0878
     65  N         36.7890   14.2130   13.7520 N.3   212  GLU212     -0.1245
     66  CA        37.5690   12.9980   14.0080 C.3   212  GLU212      0.1567
     67  C         38.3800   12.6850   12.7320 C.2   212  GLU212      0.2260
     68  O         37.8760   12.1480   11.7580 O.2   212  GLU212     -0.2867
     69  CB        36.5160   11.9050   14.2410 C.3   212  GLU212      0.0388
     70  CG        37.1200   10.5260   14.4270 C.3   212  GLU212      0.1160
     71  CD        38.2320   10.5000   15.4560 C.2   212  GLU212      0.3649
     72  OE1       39.4040   10.7210   15.0950 O.co2 212  GLU212     -0.2457
     73  OE2       37.9580   10.2210   16.6450 O.co2 212  GLU212     -0.2457
     74  N         40.6490   10.5460   12.4870 N.3   214  ASN214     -0.1240
     75  CA        40.9050    9.1050   12.3630 C.3   214  ASN214      0.1653
     76  C         39.6740    8.2640   12.1330 C.2   214  ASN214      0.2266
     77  O         39.6070    7.1350   12.6260 O.2   214  ASN214     -0.2867
     78  CB        41.6880    8.7130   13.6130 C.3   214  ASN214      0.1155
     79  CG        42.5680    7.5120   13.4380 C.2   214  ASN214      0.2627
     80  OD1       43.0680    7.2700   12.3480 O.2   214  ASN214     -0.2716
     81  ND2       42.8050    6.6990   14.4580 N.am  214  ASN214     -0.0877
     82  N         38.4920    3.7550   12.6800 N.3   218  GLN218     -0.1245
     83  CA        37.3050    3.3000   13.4010 C.3   218  GLN218      0.1566
     84  C         36.4210    2.4970   12.4570 C.2   218  GLN218      0.2260
     85  O         35.9610    1.3770   12.7600 O.2   218  GLN218     -0.2867
     86  CB        36.5860    4.5610   13.9330 C.3   218  GLN218      0.0367
     87  CG        37.3660    5.2740   15.0570 C.3   218  GLN218      0.0905
     88  CD        36.8130    6.6370   15.3150 C.2   218  GLN218      0.2608
     89  OE1       35.8040    7.0250   14.7100 O.2   218  GLN218     -0.2717
     90  NE2       37.4290    7.4500   16.1850 N.am  218  GLN218     -0.0878
     91  N         35.5490    5.9380   21.7220 N.3   265  ARG265     -0.1245
     92  CA        36.6550    6.3920   20.9130 C.3   265  ARG265      0.1563
     93  C         36.9850    7.7910   21.3860 C.2   265  ARG265      0.2260
     94  O         37.9260    8.4100   20.9610 O.2   265  ARG265     -0.2867
     95  CB        36.4380    6.2650   19.3970 C.3   265  ARG265      0.0307
     96  CG        36.5140    4.7950   18.9810 C.3   265  ARG265      0.0489
     97  CD        37.8890    4.2040   19.3370 C.3   265  ARG265      0.2205
     98  NE        38.8850    4.5430   18.3010 N.pl3 265  ARG265     -0.0865
     99  CZ        39.4370    3.8760   17.3270 C.cat 265  ARG265      0.5346
    100  NH1       39.2490    2.5920   17.0330 N.pl3 265  ARG265      0.1354
    101  NH2       40.3050    4.5540   16.5420 N.pl3 265  ARG265      0.1354
    102  N         39.0180   10.3890   26.7900 N.3   268  TYR268     -0.1241
    103  CA        40.1980   10.0090   27.5670 C.3   268  TYR268      0.1605
    104  C         40.9150   11.2800   28.0030 C.2   268  TYR268      0.2264
    105  O         41.9680   11.2030   28.6550 O.2   268  TYR268     -0.2867
    106  CB        41.1400    9.0650   26.7820 C.3   268  TYR268      0.0534
    107  CG        41.3120    9.5970   25.3660 C.ar  268  TYR268     -0.0201
    108  CD1       40.3490    9.2470   24.4100 C.ar  268  TYR268     -0.0009
    109  CD2       42.3450   10.4440   25.0210 C.ar  268  TYR268     -0.0009
    110  CE1       40.4670    9.7660   23.1260 C.ar  268  TYR268      0.0417
    111  CE2       42.4760   10.9610   23.7250 C.ar  268  TYR268      0.0417
    112  CZ        41.5150   10.6010   22.8030 C.ar  268  TYR268      0.1957
    113  OH        41.5760   11.0640   21.5160 O.3   268  TYR268     -0.2866
    114  N         46.0710   10.9700   28.7120 N.3   366  GLU366     -0.1231
    115  CA        46.1990    9.8970   27.7220 C.3   366  GLU366      0.1699
    116  C         46.2290   10.4700   26.3070 C.2   366  GLU366      0.2592
    117  O         45.7420   11.5880   26.0980 O.2   366  GLU366     -0.2718
    118  CB        44.9870    8.9820   27.9080 C.3   366  GLU366      0.0402
    119  CG        45.1170    7.9210   28.9990 C.3   366  GLU366      0.1161
    120  CD        46.2580    6.9550   28.7640 C.2   366  GLU366      0.3649
    121  OE1       46.5790    6.8120   27.5450 O.co2 366  GLU366     -0.2457
    122  OE2       46.7950    6.3500   29.7430 O.co2 366  GLU366     -0.2457
    123  N         46.8350    9.7440   25.3600 N.am  367  GLY367     -0.1957
    124  CA        46.8010   10.2560   23.9830 C.3   367  GLY367      0.1869
    125  C         47.9320   11.1220   23.5430 C.2   367  GLY367      0.2309
    126  O         47.8850   11.5840   22.4060 O.2   367  GLY367     -0.2863
    127  N         55.0770    2.2520   16.2770 N.3   448  ARG448     -0.1245
    128  CA        54.9740    3.6790   16.0190 C.3   448  ARG448      0.1563
    129  C         56.4270    4.1900   16.1200 C.2   448  ARG448      0.2260
    130  O         57.1470    3.8470   17.0670 O.2   448  ARG448     -0.2867
    131  CB        54.0400    4.4380   16.9610 C.3   448  ARG448      0.0307
    132  CG        52.5860    4.0050   16.8690 C.3   448  ARG448      0.0489
    133  CD        51.7250    4.7360   17.9080 C.3   448  ARG448      0.2205
    134  NE        52.0210    4.2210   19.2400 N.pl3 448  ARG448     -0.0865
    135  CZ        51.7490    4.7890   20.4110 C.cat 448  ARG448      0.5346
    136  NH1       51.0560    5.9250   20.5760 N.pl3 448  ARG448      0.1354
    137  NH2       52.2010    4.1500   21.5090 N.pl3 448  ARG448      0.1354
    138  N         52.9510    9.6570   19.8750 N.3   458  GLY458     -0.1210
    139  CA        51.5700    9.5540   19.4700 C.3   458  GLY458      0.1956
    140  C         51.3760    9.9800   17.9960 C.2   458  GLY458      0.2612
    141  O         51.8790   10.9970   17.5280 O.2   458  GLY458     -0.2717
    142  N         50.5820    9.1540   17.2930 N.am  459  VAL459     -0.1965
    143  CA        50.2360    9.4220   15.9110 C.3   459  VAL459      0.1727
    144  C         49.1810   10.5270   15.8240 C.2   459  VAL459      0.2616
    145  O         49.3970   11.5980   15.1960 O.2   459  VAL459     -0.2715
    146  CB        49.8250    8.1410   15.1810 C.3   459  VAL459      0.0290
    147  CG1       49.5200    8.3920   13.6710 C.3   459  VAL459      0.0023
    148  CG2       50.9990    7.1430   15.2480 C.3   459  VAL459      0.0023
    149  N         48.0340   10.3610   16.5060 N.am  460  ALA460     -0.1963
    150  CA        46.9880   11.3920   16.4640 C.3   460  ALA460      0.1728
    151  C         47.5320   12.7180   16.9740 C.2   460  ALA460      0.2616
    152  O         47.0860   13.7850   16.5360 O.2   460  ALA460     -0.2715
    153  CB        45.8420   10.9810   17.4090 C.3   460  ALA460      0.0334
    154  N         48.4530   12.7330   17.9260 N.am  461  ALA461     -0.1977
    155  CA        49.0470   13.9720   18.4520 C.3   461  ALA461      0.1597
    156  C         50.0100   14.5740   17.4330 C.2   461  ALA461      0.2287
    157  O         50.5260   15.6330   17.7570 O.2   461  ALA461     -0.2864
    158  CB        49.8330   13.7540   19.7500 C.3   461  ALA461      0.0319
@<TRIPOS>BOND
     1    68    67    2
     2    76    75    1
     3    76    77    2
     4    80    79    2
     5    75    74    1
     6    75    78    1
     7    84    85    2
     8    84    83    1
     9    82    83    1
    10    67    66    1
    11    53    51   ar
    12    53    55   ar
    13    83    86    1
    14    79    78    1
    15    79    81   am
    16    51    50   ar
    17    48    47    2
    18   147   146    1
    19    65    66    1
    20    86    87    1
    21    66    69    1
    22    69    70    1
    23    55    54   ar
    24    70    71    1
    25    47    46    1
    26    89    88    2
    27    50    49    1
    28    50    52   ar
    29    46    49    1
    30    46    45    1
    31    87    88    1
    32    72    71   ar
    33   146   148    1
    34   146   143    1
    35   145   144    2
    36    88    90   am
    37    71    73   ar
    38    54    52   ar
    39   144   143    1
    40   144   149   am
    41   143   142    1
    42    59    58    2
    43   128   129    1
    44   128   127    1
    45   128   131    1
    46    45    41   am
    47   129   130    2
    48   150   149    1
    49   150   151    1
    50   150   153    1
    51   152   151    2
    52   101    99    1
    53    58    57    1
    54   132   131    1
    55   132   133    1
    56   151   154   am
    57   100    99    1
    58   142   140   am
    59    41    42    2
    60    41    40    1
    61    99    98    2
    62   156   157    2
    63   156   155    1
    64   141   140    2
    65   133   134    1
    66   154   155    1
    67   140   139    1
    68    43    40    1
    69    43    44    1
    70    40    39    1
    71    98    97    1
    72    57    56    1
    73    57    60    1
    74   155   158    1
    75    60    61    1
    76    96    97    1
    77    96    95    1
    78   134   135    2
    79    95    92    1
    80   139   138    1
    81    63    62    2
    82    37    36    2
    83    39    36   am
    84    61    62    1
    85    62    64   am
    86    36    35    1
    87   135   136    1
    88   135   137    1
    89     7     8    1
    90     7     6    1
    91    10     9    1
    92    92    93    1
    93    92    91    1
    94    94    93    2
    95     8     9    2
    96     9    11    1
    97    33    32    1
    98     6     5    1
    99   113   112    1
   100    31    30    2
   101    35    34    1
   102    35    38    1
   103    30    34   am
   104    30    29    1
   105     5     2    1
   106   126   125    2
   107    29    32    1
   108    29    28    1
   109   112   110   ar
   110   112   111   ar
   111   110   108   ar
   112   125   124    1
   113     2     1    1
   114     2     3    1
   115   111   109   ar
   116   124   123    1
   117    28    22   am
   118   108   107   ar
   119     3     4    2
   120    23    22    2
   121    19    17   am
   122   109   107   ar
   123    22    21    1
   124   123   116   am
   125   107   106    1
   126    17    16    1
   127    17    18    2
   128    16    13    1
   129   117   116    2
   130    15    14    2
   131   116   115    1
   132    21    20    1
   133    21    24    1
   134    25    24    1
   135    25    27    1
   136   106   103    1
   137   102   103    1
   138    13    14    1
   139    13    12    1
   140    24    26    1
   141   121   120   ar
   142   103   104    1
   143   115   118    1
   144   115   114    1
   145   118   119    1
   146   104   105    2
   147   120   119    1
   148   120   122   ar
