@<TRIPOS>MOLECULE
tmp/2hgsA00.pdb
 206 192 0 0 0
SMALL
GASTEIGER

@<TRIPOS>ATOM
      1  N         59.2330    0.0080   24.6970 N.3   127  MET127     -0.1245
      2  CA        60.4200    0.5020   24.0370 C.3   127  MET127      0.1570
      3  C         61.5640   -0.5090   24.2830 C.2   127  MET127      0.2261
      4  O         61.4110   -1.3990   25.1450 O.2   127  MET127     -0.2867
      5  CB        60.8950    1.8880   24.2570 C.3   127  MET127      0.0387
      6  CG        59.9750    2.8690   23.5040 C.3   127  MET127      0.0595
      7  SD        60.6370    4.4910   23.9030 S.3   127  MET127     -0.1393
      8  CE        59.8750    5.6070   22.7550 C.3   127  MET127      0.0692
      9  N         56.1040    1.0450   28.3000 N.3   141  ILE141     -0.1231
     10  CA        56.0470    2.5070   28.4280 C.3   141  ILE141      0.1692
     11  C         54.7540    2.8870   29.1420 C.2   141  ILE141      0.2591
     12  O         54.7050    3.7790   29.9640 O.2   141  ILE141     -0.2718
     13  CB        55.9440    3.1510   27.0100 C.3   141  ILE141      0.0266
     14  CG1       57.2590    2.9610   26.2890 C.3   141  ILE141      0.0019
     15  CG2       55.4700    4.6020   27.0700 C.3   141  ILE141      0.0020
     16  CD1       58.4300    3.6380   27.0220 C.3   141  ILE141      0.0001
     17  N         53.6640    2.2360   28.7970 N.am  142  GLU142     -0.1979
     18  CA        52.3430    2.4300   29.3220 C.3   142  GLU142      0.1602
     19  C         51.4230    1.3470   28.7790 C.2   142  GLU142      0.2287
     20  O         51.8220    0.5610   27.9060 O.2   142  GLU142     -0.2864
     21  CB        51.6510    3.7850   29.0810 C.3   142  GLU142      0.0415
     22  CG        51.5220    4.0900   27.5590 C.3   142  GLU142      0.1163
     23  CD        50.2640    4.9050   27.2980 C.2   142  GLU142      0.3649
     24  OE1       49.4140    5.0860   28.1940 O.co2 142  GLU142     -0.2457
     25  OE2       50.0230    5.3390   26.1400 O.co2 142  GLU142     -0.2457
     26  N         47.3850    1.0660   27.3160 N.3   144  ASN144     -0.1240
     27  CA        46.2670    1.9780   26.9110 C.3   144  ASN144      0.1653
     28  C         44.9580    1.2150   26.9760 C.2   144  ASN144      0.2266
     29  O         44.7800    0.2990   26.1700 O.2   144  ASN144     -0.2867
     30  CB        46.5810    2.4240   25.4700 C.3   144  ASN144      0.1155
     31  CG        47.6800    3.4690   25.4470 C.2   144  ASN144      0.2627
     32  OD1       47.3870    4.6000   25.8450 O.2   144  ASN144     -0.2716
     33  ND2       48.8710    3.1380   24.9860 N.am  144  ASN144     -0.0877
     34  N         48.4510    6.2390   34.5880 N.3   303  LYS303     -0.1245
     35  CA        49.8960    6.1580   34.7830 C.3   303  LYS303      0.1561
     36  C         50.1630    5.9010   36.3090 C.2   303  LYS303      0.2260
     37  O         51.0240    5.0910   36.6750 O.2   303  LYS303     -0.2867
     38  CB        50.5150    7.5170   34.3770 C.3   303  LYS303      0.0271
     39  CG        50.3290    7.8900   32.9100 C.3   303  LYS303      0.0035
     40  CD        50.6450    6.8340   31.8730 C.3   303  LYS303      0.0206
     41  CE        50.7130    7.4090   30.4450 C.3   303  LYS303      0.1093
     42  NZ        49.4110    8.0220   29.9780 N.3   303  LYS303     -0.1314
     43  N         60.9880   10.9050   33.0990 N.3   360  VAL360     -0.1245
     44  CA        59.8660   11.5920   32.4460 C.3   360  VAL360      0.1561
     45  C         58.8340   11.8920   33.5490 C.2   360  VAL360      0.2260
     46  O         58.6920   11.0220   34.4180 O.2   360  VAL360     -0.2867
     47  CB        59.1250   10.5980   31.4850 C.3   360  VAL360      0.0252
     48  CG1       58.0070   11.4010   30.8130 C.3   360  VAL360      0.0019
     49  CG2       60.1390   10.1490   30.4210 C.3   360  VAL360      0.0019
     50  N         54.9070   12.3880   34.4200 N.3   362  LYS362     -0.1245
     51  CA        53.6110   12.1860   33.7910 C.3   362  LYS362      0.1561
     52  C         52.3240   12.4450   34.5600 C.2   362  LYS362      0.2260
     53  O         52.0880   11.8120   35.6150 O.2   362  LYS362     -0.2867
     54  CB        53.5730   10.7010   33.3980 C.3   362  LYS362      0.0271
     55  CG        54.7450   10.0120   32.7240 C.3   362  LYS362      0.0035
     56  CD        54.2710    8.8590   31.8190 C.3   362  LYS362      0.0206
     57  CE        55.3930    8.0160   31.2600 C.3   362  LYS362      0.1093
     58  NZ        54.8860    6.7620   30.6120 N.3   362  LYS362     -0.1314
     59  N         47.0160   11.5360   32.2250 N.3   365  ARG365     -0.1231
     60  CA        46.4080   11.8620   30.9340 C.3   365  ARG365      0.1694
     61  C         46.6240   10.7610   29.9350 C.2   365  ARG365      0.2592
     62  O         47.2840    9.7420   30.2200 O.2   365  ARG365     -0.2718
     63  CB        46.8760   13.2380   30.4910 C.3   365  ARG365      0.0321
     64  CG        46.5530   14.4080   31.4190 C.3   365  ARG365      0.0489
     65  CD        45.0280   14.6400   31.4550 C.3   365  ARG365      0.2205
     66  NE        44.7250   15.7300   32.3940 N.pl3 365  ARG365     -0.0865
     67  CZ        44.4710   15.5960   33.6950 C.cat 365  ARG365      0.5346
     68  NH1       44.4330   14.4320   34.2980 N.pl3 365  ARG365      0.1354
     69  NH2       44.2510   16.6880   34.4090 N.pl3 365  ARG365      0.1354
     70  N         46.0710   10.9700   28.7120 N.am  366  GLU366     -0.1966
     71  CA        46.1990    9.8970   27.7220 C.3   366  GLU366      0.1733
     72  C         46.2290   10.4700   26.3070 C.2   366  GLU366      0.2617
     73  O         45.7420   11.5880   26.0980 O.2   366  GLU366     -0.2715
     74  CB        44.9870    8.9820   27.9080 C.3   366  GLU366      0.0429
     75  CG        45.1170    7.9210   28.9990 C.3   366  GLU366      0.1163
     76  CD        46.2580    6.9550   28.7640 C.2   366  GLU366      0.3649
     77  OE1       46.5790    6.8120   27.5450 O.co2 366  GLU366     -0.2457
     78  OE2       46.7950    6.3500   29.7430 O.co2 366  GLU366     -0.2457
     79  N         46.8350    9.7440   25.3600 N.am  367  GLY367     -0.1940
     80  CA        46.8010   10.2560   23.9830 C.3   367  GLY367      0.2014
     81  C         47.9320   11.1220   23.5430 C.2   367  GLY367      0.2639
     82  O         47.8850   11.5840   22.4060 O.2   367  GLY367     -0.2714
     83  N         48.9650   11.3500   24.3560 N.am  368  GLY368     -0.1954
     84  CA        50.0880   12.1320   23.8380 C.3   368  GLY368      0.1869
     85  C         49.9940   13.6170   24.0000 C.2   368  GLY368      0.2309
     86  O         48.9360   14.2350   23.9790 O.2   368  GLY368     -0.2863
     87  N         51.0980   15.3460   26.7710 N.3   370  ASN370     -0.1225
     88  CA        50.9260   15.7960   28.1360 C.3   370  ASN370      0.1785
     89  C         52.0880   15.5650   29.0900 C.2   370  ASN370      0.2597
     90  O         52.0870   16.2830   30.0810 O.2   370  ASN370     -0.2718
     91  CB        49.7010   14.9810   28.6790 C.3   370  ASN370      0.1169
     92  CG        48.5750   15.0620   27.6400 C.2   370  ASN370      0.2627
     93  OD1       48.2220   16.1920   27.2830 O.2   370  ASN370     -0.2716
     94  ND2       47.9740   13.9650   27.1920 N.am  370  ASN370     -0.0877
     95  N         53.0000   14.6340   28.8380 N.am  371  ASN371     -0.1974
     96  CA        54.0970   14.4320   29.7610 C.3   371  ASN371      0.1688
     97  C         55.0950   15.5850   29.7100 C.2   371  ASN371      0.2292
     98  O         55.0560   16.4270   28.7960 O.2   371  ASN371     -0.2864
     99  CB        54.8320   13.1410   29.4970 C.3   371  ASN371      0.1181
    100  CG        53.9860   11.9200   29.5870 C.2   371  ASN371      0.2629
    101  OD1       52.9960   11.9090   30.3180 O.2   371  ASN371     -0.2716
    102  ND2       54.4410   10.9000   28.8560 N.am  371  ASN371     -0.0877
    103  N         59.2800   16.7910   30.1160 N.3   373  TYR373     -0.1241
    104  CA        60.6330   16.2720   30.0710 C.3   373  TYR373      0.1605
    105  C         61.6440   17.4030   30.2520 C.2   373  TYR373      0.2264
    106  O         61.2890   18.5740   30.1900 O.2   373  TYR373     -0.2867
    107  CB        60.8440   15.7340   28.6050 C.3   373  TYR373      0.0534
    108  CG        59.8090   14.6930   28.1680 C.ar  373  TYR373     -0.0201
    109  CD1       58.5580   15.0680   27.7460 C.ar  373  TYR373     -0.0009
    110  CD2       60.1110   13.3560   28.1440 C.ar  373  TYR373     -0.0009
    111  CE1       57.6120   14.1330   27.3220 C.ar  373  TYR373      0.0417
    112  CE2       59.2280   12.3790   27.6870 C.ar  373  TYR373      0.0417
    113  CZ        57.9810   12.7980   27.3000 C.ar  373  TYR373      0.1957
    114  OH        57.0390   11.8910   26.9420 O.3   373  TYR373     -0.2866
    115  N         59.0210    8.6250   35.8900 N.3   396  MET396     -0.1230
    116  CA        59.4050    7.3270   35.3640 C.3   396  MET396      0.1702
    117  C         60.7810    7.3820   34.7170 C.2   396  MET396      0.2592
    118  O         61.1450    8.4060   34.1400 O.2   396  MET396     -0.2718
    119  CB        58.2960    6.8760   34.3660 C.3   396  MET396      0.0401
    120  CG        58.4990    5.5020   33.7260 C.3   396  MET396      0.0596
    121  SD        57.2740    5.2560   32.3720 S.3   396  MET396     -0.1393
    122  CE        57.5830    3.5310   32.0480 C.3   396  MET396      0.0692
    123  N         61.5030    6.2730   34.7850 N.am  397  GLU397     -0.1966
    124  CA        62.8060    6.0930   34.1530 C.3   397  GLU397      0.1733
    125  C         62.6260    6.2850   32.6490 C.2   397  GLU397      0.2616
    126  O         61.7590    5.5750   32.0840 O.2   397  GLU397     -0.2715
    127  CB        63.1740    4.5970   34.2930 C.3   397  GLU397      0.0429
    128  CG        64.4870    4.2490   33.6180 C.3   397  GLU397      0.1163
    129  CD        64.9410    2.8360   33.9040 C.2   397  GLU397      0.3649
    130  OE1       64.1340    2.0460   34.4630 O.co2 397  GLU397     -0.2457
    131  OE2       66.0810    2.4330   33.5600 O.co2 397  GLU397     -0.2457
    132  N         63.4050    7.1580   32.0070 N.am  398  LYS398     -0.1963
    133  CA        63.2220    7.2820   30.5590 C.3   398  LYS398      0.1728
    134  C         63.9300    6.1380   29.8330 C.2   398  LYS398      0.2616
    135  O         65.0920    5.8620   30.1350 O.2   398  LYS398     -0.2715
    136  CB        63.8540    8.5930   30.0750 C.3   398  LYS398      0.0311
    137  CG        63.6850    8.8700   28.5740 C.3   398  LYS398      0.0038
    138  CD        64.4710   10.1130   28.1490 C.3   398  LYS398      0.0206
    139  CE        63.9330   11.3550   28.8350 C.3   398  LYS398      0.1093
    140  NZ        64.6060   12.6330   28.4400 N.3   398  LYS398     -0.1314
    141  N         63.2800    5.4500   28.9050 N.am  399  ILE399     -0.1977
    142  CA        64.0030    4.4310   28.1030 C.3   399  ILE399      0.1596
    143  C         64.6370    5.2610   26.9710 C.2   399  ILE399      0.2287
    144  O         63.9560    6.1540   26.4610 O.2   399  ILE399     -0.2864
    145  CB        62.9400    3.5070   27.4500 C.3   399  ILE399      0.0276
    146  CG1       61.9920    2.9750   28.5590 C.3   399  ILE399      0.0022
    147  CG2       63.6910    2.3630   26.7710 C.3   399  ILE399      0.0022
    148  CD1       62.8070    2.3470   29.7090 C.3   399  ILE399      0.0001
    149  N         63.2700    6.6050   16.6250 N.3   421  ILE421     -0.1245
    150  CA        63.2160    5.4910   17.6050 C.3   421  ILE421      0.1561
    151  C         61.7880    4.9510   17.5290 C.2   421  ILE421      0.2260
    152  O         60.8740    5.7280   17.1850 O.2   421  ILE421     -0.2867
    153  CB        63.5960    5.8640   19.0230 C.3   421  ILE421      0.0252
    154  CG1       62.7820    7.0710   19.4880 C.3   421  ILE421      0.0019
    155  CG2       65.0840    6.2030   19.1260 C.3   421  ILE421      0.0019
    156  CD1       62.9380    7.2060   21.0210 C.3   421  ILE421      0.0001
    157  N         58.3950    2.4820   19.0590 N.3   423  GLU423     -0.1245
    158  CA        57.6010    2.0480   20.1820 C.3   423  GLU423      0.1567
    159  C         56.7260    0.9090   19.6550 C.2   423  GLU423      0.2260
    160  O         55.9330    1.0930   18.7460 O.2   423  GLU423     -0.2867
    161  CB        56.7660    3.1580   20.7920 C.3   423  GLU423      0.0388
    162  CG        56.2470    2.8100   22.1880 C.3   423  GLU423      0.1160
    163  CD        55.6130    4.0020   22.8840 C.2   423  GLU423      0.3649
    164  OE1       56.0630    5.1620   22.7110 O.co2 423  GLU423     -0.2457
    165  OE2       54.6160    3.8180   23.6420 O.co2 423  GLU423     -0.2457
    166  N         55.0770    2.2520   16.2770 N.3   448  ARG448     -0.1245
    167  CA        54.9740    3.6790   16.0190 C.3   448  ARG448      0.1563
    168  C         56.4270    4.1900   16.1200 C.2   448  ARG448      0.2260
    169  O         57.1470    3.8470   17.0670 O.2   448  ARG448     -0.2867
    170  CB        54.0400    4.4380   16.9610 C.3   448  ARG448      0.0307
    171  CG        52.5860    4.0050   16.8690 C.3   448  ARG448      0.0489
    172  CD        51.7250    4.7360   17.9080 C.3   448  ARG448      0.2205
    173  NE        52.0210    4.2210   19.2400 N.pl3 448  ARG448     -0.0865
    174  CZ        51.7490    4.7890   20.4110 C.cat 448  ARG448      0.5346
    175  NH1       51.0560    5.9250   20.5760 N.pl3 448  ARG448      0.1354
    176  NH2       52.2010    4.1500   21.5090 N.pl3 448  ARG448      0.1354
    177  N         59.2670    7.6510   15.5140 N.3   450  LYS450     -0.1245
    178  CA        59.3180    9.1240   15.4840 C.3   450  LYS450      0.1561
    179  C         60.7670    9.5540   15.3560 C.2   450  LYS450      0.2260
    180  O         61.7120    8.8200   15.6580 O.2   450  LYS450     -0.2867
    181  CB        58.7930    9.6730   16.8590 C.3   450  LYS450      0.0271
    182  CG        59.7330    9.2890   18.0130 C.3   450  LYS450      0.0035
    183  CD        59.1150    9.7950   19.3890 C.3   450  LYS450      0.0206
    184  CE        59.9260    9.1630   20.5300 C.3   450  LYS450      0.1093
    185  NZ        59.6940    9.7790   21.8830 N.3   450  LYS450     -0.1314
    186  N         60.5540   14.3560   22.3570 N.3   455  ALA455     -0.1231
    187  CA        60.6110   13.6340   23.6600 C.3   455  ALA455      0.1694
    188  C         59.3480   12.7970   23.8080 C.2   455  ALA455      0.2592
    189  O         59.3300   11.6840   24.3230 O.2   455  ALA455     -0.2718
    190  CB        60.6340   14.7200   24.7730 C.3   455  ALA455      0.0304
    191  N         58.2110   13.3210   23.3870 N.am  456  ASP456     -0.1960
    192  CA        56.8880   12.7670   23.4760 C.3   456  ASP456      0.1843
    193  C         56.4590   11.9720   22.2490 C.2   456  ASP456      0.2662
    194  O         57.3450   11.4970   21.5280 O.2   456  ASP456     -0.2711
    195  CB        55.7960   13.8010   23.8500 C.3   456  ASP456      0.1450
    196  CG        54.6910   13.1700   24.6970 C.2   456  ASP456      0.3671
    197  OD1       54.8640   12.9500   25.9320 O.co2 456  ASP456     -0.2456
    198  OD2       53.6020   12.8420   24.1790 O.co2 456  ASP456     -0.2456
    199  N         55.1800   11.6910   22.0270 N.am  457  GLY457     -0.1716
    200  CA        54.8470   10.8380   20.8730 C.2   457  GLY457      0.1480
    201  C         53.3980   10.7720   20.4800 C.2   457  GLY457      0.2821
    202  O         52.6640   11.7140   20.7510 O.2   457  GLY457     -0.2669
    203  N         52.9510    9.6570   19.8750 N.am  458  GLY458     -0.1920
    204  CA        51.5700    9.5540   19.4700 C.3   458  GLY458      0.1872
    205  C         51.3760    9.9800   17.9960 C.2   458  GLY458      0.2310
    206  O         51.8790   10.9970   17.5280 O.2   458  GLY458     -0.2863
@<TRIPOS>BOND
     1   179   178    1
     2   179   180    2
     3   178   177    1
     4   178   181    1
     5   167   168    1
     6   167   166    1
     7   167   170    1
     8   168   169    2
     9   149   150    1
    10   181   182    1
    11   171   170    1
    12   171   172    1
    13   152   151    2
    14   206   205    2
    15   151   150    1
    16   150   153    1
    17   172   173    1
    18   205   204    1
    19   182   183    1
    20   160   159    2
    21   153   155    1
    22   153   154    1
    23   157   158    1
    24   173   174    2
    25   183   184    1
    26   204   203    1
    27   154   156    1
    28   159   158    1
    29   203   201   am
    30   158   161    1
    31   174   175    1
    32   174   176    1
    33   201   202    2
    34   201   200    1
    35   184   185    1
    36   161   162    1
    37   200   199    2
    38   194   193    2
    39   199   193    1
    40   162   163    1
    41   193   192    1
    42   186   187    1
    43    82    81    2
    44   164   163   ar
    45     8     7    1
    46   163   165   ar
    47   191   192    1
    48   191   188   am
    49   192   195    1
    50     6     7    1
    51     6     5    1
    52    81    80    1
    53    81    83   am
    54   187   188    1
    55   187   190    1
    56   188   189    2
    57    84    85    1
    58    84    83    1
    59   195   196    1
    60    86    85    2
    61    80    79    1
    62     2     5    1
    63     2     3    1
    64     2     1    1
    65   198   196   ar
    66     3     4    2
    67   196   197   ar
    68    33    31   am
    69    79    72   am
    70    31    30    1
    71    31    32    2
    72    30    27    1
    73    73    72    2
    74    25    23   ar
    75    29    28    2
    76    14    13    1
    77    14    16    1
    78    72    71    1
    79   144   143    2
    80   147   145    1
    81    87    88    1
    82    27    28    1
    83    27    26    1
    84   114   113    1
    85   143   142    1
    86    13    15    1
    87    13    10    1
    88    94    92   am
    89    93    92    2
    90    23    22    1
    91    23    24   ar
    92   113   111   ar
    93   113   112   ar
    94   111   109   ar
    95   145   142    1
    96   145   146    1
    97    77    76   ar
    98    22    21    1
    99    92    91    1
   100   112   110   ar
   101    71    74    1
   102    71    70    1
   103   109   108   ar
   104    20    19    2
   105    74    75    1
   106   142   141    1
   107    88    91    1
   108    88    89    1
   109   110   108   ar
   110   138   137    1
   111   138   139    1
   112   108   107    1
   113     9    10    1
   114    10    11    1
   115   140   139    1
   116   146   148    1
   117   137   136    1
   118   107   104    1
   119    70    61   am
   120    76    75    1
   121    76    78   ar
   122    19    18    1
   123    98    97    2
   124    17    11   am
   125    17    18    1
   126    95    89   am
   127    95    96    1
   128   102   100   am
   129   141   134   am
   130    21    18    1
   131    89    90    2
   132    11    12    2
   133    99   100    1
   134    99    96    1
   135   100   101    2
   136    97    96    1
   137   134   135    2
   138   134   133    1
   139    61    62    2
   140    61    60    1
   141    42    41    1
   142   104   103    1
   143   104   105    1
   144   136   133    1
   145   106   105    2
   146    49    47    1
   147    41    40    1
   148    63    60    1
   149    63    64    1
   150   133   132    1
   151    58    57    1
   152    48    47    1
   153    60    59    1
   154    57    56    1
   155    64    65    1
   156    65    66    1
   157    47    44    1
   158    56    55    1
   159    40    39    1
   160   132   125   am
   161   122   121    1
   162   126   125    2
   163   121   120    1
   164    66    67    2
   165    44    43    1
   166    44    45    1
   167   125   124    1
   168    55    54    1
   169    39    38    1
   170    54    51    1
   171    45    46    2
   172   131   129   ar
   173   128   129    1
   174   128   127    1
   175    67    68    1
   176    67    69    1
   177   120   119    1
   178    51    50    1
   179    51    52    1
   180   129   130   ar
   181   118   117    2
   182   124   127    1
   183   124   123    1
   184   119   116    1
   185    38    35    1
   186    52    53    2
   187    34    35    1
   188   117   123   am
   189   117   116    1
   190    35    36    1
   191   116   115    1
   192    36    37    2
