@<TRIPOS>MOLECULE
tmp/2hgtB01.pdb
 122 116 0 0 0
SMALL
GASTEIGER

@<TRIPOS>ATOM
      1  N         11.8490    0.0470   10.3920 N.3    17  MET17      -0.1245
      2  CA        11.9440   -1.3980   10.0120 C.3    17  MET17       0.1570
      3  C         13.3540   -1.6340    9.4510 C.2    17  MET17       0.2261
      4  O         13.7910   -0.9130    8.5340 O.2    17  MET17      -0.2867
      5  CB        10.8220   -1.8270    9.0860 C.3    17  MET17       0.0387
      6  CG        11.2730   -2.9990    8.2260 C.3    17  MET17       0.0595
      7  SD         9.9170   -3.6240    7.2020 S.3    17  MET17      -0.1393
      8  CE         8.4320   -3.3450    8.2160 C.3    17  MET17       0.0692
      9  N         15.5020   -3.6860    7.2990 N.3    19  PHE19      -0.1241
     10  CA        15.1800   -4.5420    6.1430 C.3    19  PHE19       0.1605
     11  C         16.3130   -5.0460    5.3050 C.2    19  PHE19       0.2264
     12  O         17.2190   -4.3190    4.8420 O.2    19  PHE19      -0.2867
     13  CB        14.1590   -3.6930    5.3300 C.3    19  PHE19       0.0534
     14  CG        13.4680   -4.5750    4.3500 C.ar   19  PHE19      -0.0203
     15  CD1       12.4150   -5.3790    4.7900 C.ar   19  PHE19      -0.0042
     16  CD2       13.9420   -4.6290    3.0200 C.ar   19  PHE19      -0.0042
     17  CE1       11.7860   -6.2550    3.9090 C.ar   19  PHE19      -0.0003
     18  CE2       13.3210   -5.5020    2.1140 C.ar   19  PHE19      -0.0003
     19  CZ        12.2360   -6.2820    2.5800 C.ar   19  PHE19      -0.0000
     20  N         15.4060  -10.1710    0.4580 N.3    24  GLN24      -0.1231
     21  CA        14.6380   -9.0280    0.9370 C.3    24  GLN24       0.1698
     22  C         13.8910   -9.6290    2.1530 C.2    24  GLN24       0.2592
     23  O         13.0190  -10.4680    1.7910 O.2    24  GLN24      -0.2718
     24  CB        13.5470   -8.4640    0.0190 C.3    24  GLN24       0.0381
     25  CG        14.1180   -7.5000   -1.0160 C.3    24  GLN24       0.0905
     26  CD        13.1290   -6.5120   -1.5860 C.2    24  GLN24       0.2608
     27  OE1       13.4580   -5.7810   -2.5250 O.2    24  GLN24      -0.2717
     28  NE2       11.9000   -6.4380   -1.0390 N.am   24  GLN24      -0.0878
     29  N         14.2890   -9.2100    3.3400 N.am   25  GLU25      -0.1966
     30  CA        13.5160   -9.7630    4.5120 C.3    25  GLU25       0.1733
     31  C         13.5880   -8.8330    5.7140 C.2    25  GLU25       0.2616
     32  O         14.5310   -8.0300    5.8260 O.2    25  GLU25      -0.2715
     33  CB        14.0550  -11.1210    4.9150 C.3    25  GLU25       0.0429
     34  CG        15.5470  -11.2100    4.6070 C.3    25  GLU25       0.1163
     35  CD        16.1790  -12.3920    5.3110 C.2    25  GLU25       0.3649
     36  OE1       15.3550  -12.8690    6.1500 O.co2  25  GLU25      -0.2457
     37  OE2       17.3290  -12.7570    5.0030 O.co2  25  GLU25      -0.2457
     38  N         12.5910   -8.9620    6.5720 N.am   26  LEU26      -0.1977
     39  CA        12.4920   -8.1630    7.7980 C.3    26  LEU26       0.1596
     40  C         13.4810   -8.7690    8.8410 C.2    26  LEU26       0.2287
     41  O         13.2420   -9.9240    9.2170 O.2    26  LEU26      -0.2864
     42  CB        11.0960   -7.9830    8.3750 C.3    26  LEU26       0.0297
     43  CG        10.9850   -7.0100    9.5740 C.3    26  LEU26       0.0022
     44  CD1        9.5840   -6.4200    9.6560 C.3    26  LEU26       0.0001
     45  CD2       11.1250   -7.8210   10.8610 C.3    26  LEU26       0.0001
     46  N         18.9500   -1.8230    4.4760 N.3    60  LEU60      -0.1245
     47  CA        17.8740   -0.8910    4.3110 C.3    60  LEU60       0.1561
     48  C         16.9760   -0.6580    5.5520 C.2    60  LEU60       0.2260
     49  O         16.4800   -1.5200    6.2970 O.2    60  LEU60      -0.2867
     50  CB        17.0110   -1.4510    3.1540 C.3    60  LEU60       0.0270
     51  CG        16.9900   -0.6440    1.8730 C.3    60  LEU60       0.0019
     52  CD1       18.3620   -0.1040    1.4790 C.3    60  LEU60       0.0001
     53  CD2       16.4660   -1.6740    0.8720 C.3    60  LEU60       0.0001
     54  N         13.4080    1.2430    6.5660 N.3    62  ARG62      -0.1245
     55  CA        12.0700    1.6540    6.1610 C.3    62  ARG62       0.1563
     56  C         11.3610    2.3960    7.3180 C.2    62  ARG62       0.2260
     57  O         11.1080    1.8080    8.3790 O.2    62  ARG62      -0.2867
     58  CB        11.2710    0.4900    5.5500 C.3    62  ARG62       0.0307
     59  CG        12.2140   -0.2160    4.5110 C.3    62  ARG62       0.0489
     60  CD        11.6100   -1.4040    3.8990 C.3    62  ARG62       0.2205
     61  NE        10.3430   -1.0740    3.2300 N.pl3  62  ARG62      -0.0865
     62  CZ         9.5080   -1.9890    2.7770 C.cat  62  ARG62       0.5346
     63  NH1        9.7710   -3.3080    2.8770 N.pl3  62  ARG62       0.1354
     64  NH2        8.3420   -1.6720    2.2270 N.pl3  62  ARG62       0.1354
     65  N          3.3140   -4.4380    7.2640 N.3    68  ARG68      -0.1231
     66  CA         4.5820   -5.1620    7.3810 C.3    68  ARG68       0.1694
     67  C          5.2720   -5.4120    6.0250 C.2    68  ARG68       0.2593
     68  O          6.4750   -5.1700    5.8190 O.2    68  ARG68      -0.2718
     69  CB         4.3340   -6.5400    8.0270 C.3    68  ARG68       0.0321
     70  CG         5.6030   -7.4470    7.9890 C.3    68  ARG68       0.0489
     71  CD         5.2570   -8.6510    8.8420 C.3    68  ARG68       0.2205
     72  NE         4.1920   -9.3890    8.2020 N.pl3  68  ARG68      -0.0865
     73  CZ         4.3670  -10.3910    7.3210 C.cat  68  ARG68       0.5346
     74  NH1        5.5910  -10.8960    7.1640 N.pl3  68  ARG68       0.1354
     75  NH2        3.3070  -10.9250    6.6790 N.pl3  68  ARG68       0.1354
     76  N          4.4560   -5.9000    5.1280 N.am   69  THR69      -0.1939
     77  CA         4.7740   -6.3390    3.7610 C.3    69  THR69       0.2028
     78  C          4.6430   -5.4210    2.5830 C.2    69  THR69       0.2642
     79  O          5.6340   -5.2560    1.7970 O.2    69  THR69      -0.2714
     80  CB         3.9080   -7.6750    3.6620 C.3    69  THR69       0.1808
     81  OG1        4.9240   -8.7200    3.8640 O.3    69  THR69      -0.2208
     82  CG2        2.8970   -7.7620    2.5500 C.3    69  THR69       0.0379
     83  N          3.5070   -4.7510    2.4320 N.am   70  ARG70      -0.1963
     84  CA         3.2610   -3.7940    1.3100 C.3    70  ARG70       0.1729
     85  C          4.2150   -2.6290    1.2770 C.2    70  ARG70       0.2616
     86  O          4.7650   -2.2150    2.3130 O.2    70  ARG70      -0.2715
     87  CB         1.7640   -3.4360    1.4530 C.3    70  ARG70       0.0348
     88  CG         1.0880   -4.8320    1.7600 C.3    70  ARG70       0.0492
     89  CD        -0.3550   -4.7180    2.0520 C.3    70  ARG70       0.2205
     90  NE        -1.1150   -5.8150    2.6200 N.pl3  70  ARG70      -0.0865
     91  CZ        -1.4860   -6.0260    3.9070 C.cat  70  ARG70       0.5346
     92  NH1       -1.1900   -5.2280    4.9770 N.pl3  70  ARG70       0.1354
     93  NH2       -2.2770   -7.1230    4.1050 N.pl3  70  ARG70       0.1354
     94  N          4.5170   -2.1180    0.0660 N.am   71  TYR71      -0.1974
     95  CA         5.4280   -0.9490   -0.1080 C.3    71  TYR71       0.1639
     96  C          4.4420    0.2340    0.0150 C.2    71  TYR71       0.2290
     97  O          3.5210    0.2720   -0.8310 O.2    71  TYR71      -0.2864
     98  CB         6.1600   -0.8540   -1.4390 C.3    71  TYR71       0.0560
     99  CG         6.6950    0.5480   -1.6650 C.ar   71  TYR71      -0.0198
    100  CD1        7.6700    1.0740   -0.7930 C.ar   71  TYR71      -0.0009
    101  CD2        6.2090    1.3360   -2.7090 C.ar   71  TYR71      -0.0009
    102  CE1        8.1700    2.3610   -0.9870 C.ar   71  TYR71       0.0417
    103  CE2        6.6830    2.6410   -2.9370 C.ar   71  TYR71       0.0417
    104  CZ         7.6540    3.1230   -2.0530 C.ar   71  TYR71       0.1957
    105  OH         8.1100    4.3880   -2.2920 O.3    71  TYR71      -0.2866
    106  N         12.5560    4.9900    2.5700 N.3    78  ILE78      -0.1245
    107  CA        13.5720    3.9330    2.6720 C.3    78  ILE78       0.1561
    108  C         14.9040    4.6430    2.6990 C.2    78  ILE78       0.2260
    109  O         15.0510    5.6410    1.9690 O.2    78  ILE78      -0.2867
    110  CB        13.5060    2.8930    1.5040 C.3    78  ILE78       0.0252
    111  CG1       12.0380    2.5000    1.2630 C.3    78  ILE78       0.0019
    112  CG2       14.4580    1.6910    1.7680 C.3    78  ILE78       0.0019
    113  CD1       11.6480    1.2150    0.5270 C.3    78  ILE78       0.0001
    114  N          2.5440  -13.9310   11.5800 N.3   150  GLN150     -0.1245
    115  CA         3.2660  -12.6600   11.2860 C.3   150  GLN150      0.1566
    116  C          2.0510  -11.7350   11.0830 C.2   150  GLN150      0.2260
    117  O          1.0600  -12.2430   10.4620 O.2   150  GLN150     -0.2867
    118  CB         4.1350  -12.7260   10.0680 C.3   150  GLN150      0.0367
    119  CG         4.3830  -14.2340    9.7580 C.3   150  GLN150      0.0905
    120  CD         4.6740  -14.4250    8.2720 C.2   150  GLN150      0.2608
    121  OE1        3.8210  -14.2910    7.3810 O.2   150  GLN150     -0.2717
    122  NE2        5.9790  -14.6820    8.0400 N.am  150  GLN150     -0.0878
@<TRIPOS>BOND
     1   103   101   ar
     2   103   104   ar
     3   101    99   ar
     4    27    26    2
     5   105   104    1
     6   104   102   ar
     7    99    98    1
     8    99   100   ar
     9    26    28   am
    10    26    25    1
    11    98    95    1
    12    25    24    1
    13   102   100   ar
    14    97    96    2
    15    95    96    1
    16    95    94    1
    17    24    21    1
    18    94    85   am
    19    20    21    1
    20   113   111    1
    21    53    51    1
    22    21    22    1
    23   111   110    1
    24    85    84    1
    25    85    86    2
    26    84    87    1
    27    84    83    1
    28    87    88    1
    29    52    51    1
    30   110   112    1
    31   110   107    1
    32    88    89    1
    33    23    22    2
    34    79    78    2
    35    51    50    1
    36   109   108    2
    37    89    90    1
    38    18    19   ar
    39    18    16   ar
    40    22    29   am
    41    64    62    1
    42    83    78   am
    43    82    80    1
    44   106   107    1
    45    19    17   ar
    46    78    77    1
    47    90    91    2
    48   107   108    1
    49    62    63    1
    50    62    61    2
    51    16    14   ar
    52    50    47    1
    53    61    60    1
    54    29    30    1
    55    80    77    1
    56    80    81    1
    57    77    76    1
    58    60    59    1
    59    91    93    1
    60    91    92    1
    61    17    15   ar
    62    47    46    1
    63    47    48    1
    64    14    15   ar
    65    14    13    1
    66    59    58    1
    67    30    33    1
    68    30    31    1
    69    34    33    1
    70    34    35    1
    71    12    11    2
    72    37    35   ar
    73    76    67   am
    74    11    10    1
    75    35    36   ar
    76    13    10    1
    77    58    55    1
    78    48    49    2
    79    31    32    2
    80    31    38   am
    81    68    67    2
    82    67    66    1
    83    10     9    1
    84    55    54    1
    85    55    56    1
    86    38    39    1
    87    75    73    1
    88    74    73    1
    89     7     8    1
    90     7     6    1
    91    65    66    1
    92    56    57    2
    93    73    72    2
    94    66    69    1
    95   121   120    2
    96    39    42    1
    97    39    40    1
    98    70    69    1
    99    70    71    1
   100   122   120   am
   101    72    71    1
   102     6     5    1
   103   120   119    1
   104    42    43    1
   105     4     3    2
   106    40    41    2
   107     5     2    1
   108     3     2    1
   109    43    44    1
   110    43    45    1
   111   119   118    1
   112     2     1    1
   113   118   115    1
   114   117   116    2
   115   116   115    1
   116   115   114    1
