@<TRIPOS>MOLECULE
tmp/2hgvA00.pdb
 87 87 0 0 0
SMALL
GASTEIGER

@<TRIPOS>ATOM
      1  N         21.8000   31.9480   12.5170 N.3    58  ARG58      -0.1245
      2  CA        23.0420   31.6840   11.7770 C.3    58  ARG58       0.1563
      3  C         23.3690   30.1790   11.7560 C.2    58  ARG58       0.2260
      4  O         23.8500   29.6480   10.7480 O.2    58  ARG58      -0.2867
      5  CB        24.1720   32.4960   12.4050 C.3    58  ARG58       0.0307
      6  CG        25.5000   32.4100   11.7100 C.3    58  ARG58       0.0489
      7  CD        26.4200   33.4940   12.2450 C.3    58  ARG58       0.2205
      8  NE        26.8320   33.1690   13.6040 N.pl3  58  ARG58      -0.0865
      9  CZ        27.8340   32.3470   13.9290 C.cat  58  ARG58       0.5346
     10  NH1       28.5630   31.7620   12.9950 N.pl3  58  ARG58       0.1354
     11  NH2       28.1090   32.1240   15.2060 N.pl3  58  ARG58       0.1354
     12  N         29.4830   24.6740    7.0830 N.3    66  PHE66      -0.1228
     13  CA        30.0450   25.4040    8.2210 C.3    66  PHE66       0.1721
     14  C         30.9300   26.5460    7.7460 C.2    66  PHE66       0.2437
     15  O         31.3930   26.5260    6.6080 O.2    66  PHE66      -0.2733
     16  CB        30.8910   24.4750    9.1020 C.3    66  PHE66       0.0547
     17  CG        30.1330   23.8410   10.2290 C.ar   66  PHE66      -0.0202
     18  CD1       28.8050   23.4620   10.0790 C.ar   66  PHE66      -0.0042
     19  CD2       30.7640   23.5920   11.4410 C.ar   66  PHE66      -0.0042
     20  CE1       28.1230   22.8690   11.1250 C.ar   66  PHE66      -0.0003
     21  CE2       30.0800   22.9870   12.4820 C.ar   66  PHE66      -0.0003
     22  CZ        28.7620   22.6290   12.3180 C.ar   66  PHE66      -0.0000
     23  N         31.1910   27.5320    8.6310 N.am   67  PRO67      -0.2729
     24  CA        32.0390   28.6780    8.2560 C.3    67  PRO67       0.1401
     25  C         33.4620   28.3150    7.8210 C.2    67  PRO67       0.2269
     26  O         34.0250   27.3130    8.2730 O.2    67  PRO67      -0.2865
     27  CB        32.0960   29.5220    9.5350 C.3    67  PRO67       0.0296
     28  CG        30.9510   29.0600   10.3810 C.3    67  PRO67       0.0237
     29  CD        30.6980   27.6380   10.0190 C.3    67  PRO67       0.0939
     30  N         36.4710   28.9020   10.7070 N.3    70  TYR70      -0.1241
     31  CA        36.2550   27.8100   11.6840 C.3    70  TYR70       0.1605
     32  C         36.6650   26.4540   11.1260 C.2    70  TYR70       0.2264
     33  O         37.4080   25.7020   11.7540 O.2    70  TYR70      -0.2867
     34  CB        34.7910   27.7440   12.1200 C.3    70  TYR70       0.0534
     35  CG        34.4980   26.6180   13.0850 C.ar   70  TYR70      -0.0201
     36  CD1       34.7160   26.7740   14.4440 C.ar   70  TYR70      -0.0009
     37  CD2       33.9920   25.4020   12.6430 C.ar   70  TYR70      -0.0009
     38  CE1       34.4370   25.7550   15.3380 C.ar   70  TYR70       0.0417
     39  CE2       33.7200   24.3660   13.5360 C.ar   70  TYR70       0.0417
     40  CZ        33.9490   24.5580   14.8820 C.ar   70  TYR70       0.1957
     41  OH        33.7210   23.5560   15.7810 O.3    70  TYR70      -0.2866
     42  N         38.0450   28.3570   20.6170 N.3    89  GLU89      -0.1245
     43  CA        37.8380   28.6850   19.1960 C.3    89  GLU89       0.1567
     44  C         37.2040   27.5170   18.4420 C.2    89  GLU89       0.2260
     45  O         36.5740   27.7090   17.4080 O.2    89  GLU89      -0.2867
     46  CB        39.1600   29.0720   18.5230 C.3    89  GLU89       0.0388
     47  CG        40.2640   27.9800   18.6300 C.3    89  GLU89       0.1160
     48  CD        41.6070   28.4010   18.0350 C.2    89  GLU89       0.3649
     49  OE1       41.6300   28.8630   16.8680 O.co2  89  GLU89      -0.2457
     50  OE2       42.6470   28.2510   18.7250 O.co2  89  GLU89      -0.2457
     51  N         34.7670   25.6240   19.6230 N.3    91  THR91      -0.1203
     52  CA        33.3960   25.3440   20.0870 C.3    91  THR91       0.1994
     53  C         32.3980   25.2040   18.9170 C.2    91  THR91       0.2618
     54  O         32.4930   25.9150   17.9060 O.2    91  THR91      -0.2717
     55  CB        32.8770   26.3850   21.1390 C.3    91  THR91       0.1784
     56  OG1       31.6500   25.9240   21.7450 O.3    91  THR91      -0.2211
     57  CG2       32.6460   27.7440   20.5150 C.3    91  THR91       0.0376
     58  N         31.4550   24.2730   19.0590 N.am   92  ALA92      -0.1965
     59  CA        30.4540   24.0260   18.0280 C.3    92  ALA92       0.1728
     60  C         29.1680   24.7890   18.3300 C.2    92  ALA92       0.2616
     61  O         28.1740   24.6510   17.6100 O.2    92  ALA92      -0.2715
     62  CB        30.1720   22.5600   17.9050 C.3    92  ALA92       0.0334
     63  N         29.1840   25.5990   19.3820 N.am   93  PHE93      -0.1960
     64  CA        28.0560   26.4680   19.6770 C.3    93  PHE93       0.1756
     65  C         28.2790   27.8750   19.0570 C.2    93  PHE93       0.2461
     66  O         29.4150   28.3140   18.8940 O.2    93  PHE93      -0.2730
     67  CB        27.8720   26.5270   21.1850 C.3    93  PHE93       0.0574
     68  CG        27.4370   25.2150   21.7940 C.ar   93  PHE93      -0.0200
     69  CD1       26.0990   24.9100   21.9100 C.ar   93  PHE93      -0.0042
     70  CD2       28.3720   24.2710   22.2280 C.ar   93  PHE93      -0.0042
     71  CE1       25.6910   23.6950   22.4800 C.ar   93  PHE93      -0.0003
     72  CE2       27.9660   23.0530   22.7930 C.ar   93  PHE93      -0.0003
     73  CZ        26.6320   22.7700   22.9110 C.ar   93  PHE93      -0.0000
     74  N         27.2010   28.5930   18.6900 N.am   94  PRO94      -0.2716
     75  CA        27.5080   29.8790   18.0330 C.3    94  PRO94       0.1536
     76  C         28.0210   30.8750   19.0560 C.2    94  PRO94       0.2598
     77  O         27.4910   30.9430   20.1790 O.2    94  PRO94      -0.2715
     78  CB        26.1660   30.3240   17.4350 C.3    94  PRO94       0.0310
     79  CG        25.1950   29.2130   17.6810 C.3    94  PRO94       0.0237
     80  CD        25.7490   28.3990   18.8230 C.3    94  PRO94       0.0939
     81  N         29.0680   31.6130   18.6850 N.am   95  VAL95      -0.1978
     82  CA        29.7620   32.4680   19.6460 C.3    95  VAL95       0.1596
     83  C         28.9200   33.6240   20.1790 C.2    95  VAL95       0.2287
     84  O         29.1550   34.0780   21.2820 O.2    95  VAL95      -0.2864
     85  CB        31.1430   32.9550   19.1280 C.3    95  VAL95       0.0276
     86  CG1       32.1350   31.8010   19.1780 C.3    95  VAL95       0.0022
     87  CG2       31.0780   33.5250   17.7310 C.3    95  VAL95       0.0022
@<TRIPOS>BOND
     1    15    14    2
     2    12    13    1
     3    14    13    1
     4    14    23   am
     5    25    24    1
     6    25    26    2
     7    13    16    1
     8    24    23    1
     9    24    27    1
    10    23    29    1
    11    16    17    1
    12    27    28    1
    13    29    28    1
    14    18    17   ar
    15    18    20   ar
    16    17    19   ar
    17    30    31    1
    18     4     3    2
    19    20    22   ar
    20    32    31    1
    21    32    33    2
    22    19    21   ar
    23    31    34    1
    24     6     7    1
    25     6     5    1
    26     3     2    1
    27     2     5    1
    28     2     1    1
    29    34    35    1
    30     7     8    1
    31    22    21   ar
    32    37    35   ar
    33    37    39   ar
    34    10     9    1
    35    35    36   ar
    36    39    40   ar
    37     8     9    2
    38     9    11    1
    39    36    38   ar
    40    40    38   ar
    41    40    41    1
    42    49    48   ar
    43    45    44    2
    44    78    79    1
    45    78    75    1
    46    61    60    2
    47    79    80    1
    48    87    85    1
    49    62    59    1
    50    54    53    2
    51    59    60    1
    52    59    58    1
    53    75    74    1
    54    75    76    1
    55    48    47    1
    56    48    50   ar
    57    60    63   am
    58    44    43    1
    59    46    47    1
    60    46    43    1
    61    81    76   am
    62    81    82    1
    63    74    80    1
    64    74    65   am
    65    66    65    2
    66    53    58   am
    67    53    52    1
    68    76    77    2
    69    65    64    1
    70    85    86    1
    71    85    82    1
    72    43    42    1
    73    63    64    1
    74    51    52    1
    75    82    83    1
    76    64    67    1
    77    52    55    1
    78    83    84    2
    79    57    55    1
    80    55    56    1
    81    67    68    1
    82    68    69   ar
    83    68    70   ar
    84    69    71   ar
    85    70    72   ar
    86    71    73   ar
    87    72    73   ar
