@<TRIPOS>MOLECULE
tmp/2hgxB01.pdb
 107 106 0 0 0
SMALL
GASTEIGER

@<TRIPOS>ATOM
      1  N         33.8210  -21.6380   27.8950 N.3    90  ARG90      -0.1245
      2  CA        32.3900  -21.5510   28.2750 C.3    90  ARG90       0.1563
      3  C         31.4420  -21.1340   27.1350 C.2    90  ARG90       0.2260
      4  O         30.5760  -20.2640   27.3290 O.2    90  ARG90      -0.2867
      5  CB        32.2060  -20.5880   29.4560 C.3    90  ARG90       0.0307
      6  CG        33.1150  -20.8170   30.6280 C.3    90  ARG90       0.0489
      7  CD        32.7010  -19.9550   31.7950 C.3    90  ARG90       0.2205
      8  NE        31.5380  -20.5050   32.4880 N.pl3  90  ARG90      -0.0865
      9  CZ        31.0620  -20.0470   33.6430 C.cat  90  ARG90       0.5346
     10  NH1       31.6390  -19.0150   34.2520 N.pl3  90  ARG90       0.1354
     11  NH2       30.0190  -20.6440   34.2050 N.pl3  90  ARG90       0.1354
     12  N         32.4460  -16.3010   39.7590 N.3   274  ASP274     -0.1225
     13  CA        32.4510  -17.7300   40.1060 C.3   274  ASP274      0.1805
     14  C         33.7770  -18.1590   40.7270 C.2   274  ASP274      0.2597
     15  O         33.7990  -18.9010   41.7090 O.2   274  ASP274     -0.2718
     16  CB        32.1970  -18.6030   38.8700 C.3   274  ASP274      0.1424
     17  CG        30.7980  -18.4420   38.2910 C.2   274  ASP274      0.3668
     18  OD1       30.6220  -18.8220   37.1160 O.co2 274  ASP274     -0.2456
     19  OD2       29.8800  -17.9500   38.9830 O.co2 274  ASP274     -0.2456
     20  N         34.8690  -17.6420   40.1660 N.am  275  MET275     -0.1979
     21  CA        36.2310  -17.9390   40.6100 C.3   275  MET275      0.1605
     22  C         36.5130  -17.3610   41.9980 C.2   275  MET275      0.2287
     23  O         37.0180  -18.0650   42.8810 O.2   275  MET275     -0.2864
     24  CB        37.2190  -17.3700   39.5950 C.3   275  MET275      0.0413
     25  CG        38.5630  -18.0310   39.5940 C.3   275  MET275      0.0598
     26  SD        39.6550  -17.3890   38.3120 S.3   275  MET275     -0.1393
     27  CE        39.1310  -18.3140   36.9600 C.3   275  MET275      0.0692
     28  N         34.2720  -16.4450   44.2260 N.3   277  GLN277     -0.1231
     29  CA        33.3470  -17.0480   45.1930 C.3   277  GLN277      0.1698
     30  C         33.8320  -18.4340   45.6450 C.2   277  GLN277      0.2593
     31  O         33.6330  -18.8130   46.8050 O.2   277  GLN277     -0.2718
     32  CB        31.9370  -17.1400   44.6010 C.3   277  GLN277      0.0381
     33  CG        30.8140  -17.1180   45.6370 C.3   277  GLN277      0.0905
     34  CD        29.4370  -17.0030   45.0110 C.2   277  GLN277      0.2608
     35  OE1       29.1450  -16.0470   44.2890 O.2   277  GLN277     -0.2717
     36  NE2       28.5760  -17.9770   45.2930 N.am  277  GLN277     -0.0878
     37  N         34.5130  -19.1490   44.7440 N.am  278  THR278     -0.1939
     38  CA        35.0540  -20.4870   45.0260 C.3   278  THR278      0.2028
     39  C         36.2520  -20.4080   45.9850 C.2   278  THR278      0.2642
     40  O         36.4170  -21.2790   46.8490 O.2   278  THR278     -0.2714
     41  CB        35.4400  -21.2350   43.7120 C.3   278  THR278      0.1808
     42  OG1       34.2810  -21.3430   42.8750 O.3   278  THR278     -0.2208
     43  CG2       35.9610  -22.6550   43.9960 C.3   278  THR278      0.0379
     44  N         37.0440  -19.3400   45.8600 N.am  279  TRP279     -0.1973
     45  CA        38.2130  -19.1180   46.7180 C.3   279  TRP279      0.1640
     46  C         37.7810  -18.8650   48.1630 C.2   279  TRP279      0.2290
     47  O         38.4010  -19.3760   49.0970 O.2   279  TRP279     -0.2864
     48  CB        39.0410  -17.9220   46.2280 C.3   279  TRP279      0.0576
     49  CG        39.6900  -18.0630   44.8700 C.ar  279  TRP279      0.0006
     50  CD1       39.9780  -19.2240   44.1940 C.ar  279  TRP279      0.0946
     51  CD2       40.1570  -16.9940   44.0420 C.ar  279  TRP279      0.0152
     52  NE1       40.5970  -18.9390   43.0010 N.ar  279  TRP279     -0.2442
     53  CE2       40.7230  -17.5810   42.8770 C.ar  279  TRP279      0.0810
     54  CE3       40.1570  -15.5890   44.1670 C.ar  279  TRP279      0.0012
     55  CZ2       41.2890  -16.8070   41.8340 C.ar  279  TRP279      0.0191
     56  CZ3       40.7200  -14.8130   43.1260 C.ar  279  TRP279      0.0001
     57  CH2       41.2760  -15.4330   41.9760 C.ar  279  TRP279      0.0015
     58  N         45.0490  -17.8700   36.4540 N.3   346  GLU346     -0.1245
     59  CA        44.1090  -18.9800   36.5750 C.3   346  GLU346      0.1567
     60  C         43.3020  -19.1850   35.3020 C.2   346  GLU346      0.2260
     61  O         43.1070  -20.3250   34.8830 O.2   346  GLU346     -0.2867
     62  CB        43.1950  -18.8260   37.7850 C.3   346  GLU346      0.0388
     63  CG        42.7990  -20.1720   38.3480 C.3   346  GLU346      0.1160
     64  CD        41.8590  -20.0660   39.5100 C.2   346  GLU346      0.3649
     65  OE1       40.6820  -20.4210   39.3300 O.co2 346  GLU346     -0.2457
     66  OE2       42.2950  -19.6380   40.5990 O.co2 346  GLU346     -0.2457
     67  N         43.4650  -22.5520   32.7210 N.3   350  ILE350     -0.1245
     68  CA        42.2360  -23.2640   32.3520 C.3   350  ILE350      0.1561
     69  C         42.0910  -23.2580   30.8200 C.2   350  ILE350      0.2260
     70  O         41.9240  -24.3090   30.1920 O.2   350  ILE350     -0.2867
     71  CB        40.9930  -22.5900   33.0450 C.3   350  ILE350      0.0252
     72  CG1       41.0250  -22.8740   34.5520 C.3   350  ILE350      0.0019
     73  CG2       39.6610  -23.0550   32.4280 C.3   350  ILE350      0.0019
     74  CD1       40.1170  -21.9760   35.3830 C.3   350  ILE350      0.0001
     75  N         39.2360  -28.5320   33.4150 N.3   357  HIS357     -0.1226
     76  CA        38.0900  -27.7760   33.9160 C.3   357  HIS357      0.1752
     77  C         36.8780  -27.9820   33.0250 C.2   357  HIS357      0.2596
     78  O         37.0050  -28.0040   31.7970 O.2   357  HIS357     -0.2718
     79  CB        38.4310  -26.2790   33.9810 C.3   357  HIS357      0.0759
     80  CG        37.7000  -25.5370   35.0550 C.ar  357  HIS357      0.0818
     81  ND1       36.3440  -25.2920   35.0050 N.ar  357  HIS357     -0.2268
     82  CD2       38.1290  -25.0290   36.2340 C.ar  357  HIS357      0.1154
     83  CE1       35.9710  -24.6730   36.1110 C.ar  357  HIS357      0.1986
     84  NE2       37.0350  -24.4980   36.8710 N.ar  357  HIS357     -0.2212
     85  N         35.7020  -28.0630   33.6580 N.am  358  GLU358     -0.1965
     86  CA        34.4180  -28.2510   32.9670 C.3   358  GLU358      0.1733
     87  C         34.0320  -27.0440   32.1030 C.2   358  GLU358      0.2616
     88  O         33.1610  -27.1400   31.2360 O.2   358  GLU358     -0.2715
     89  CB        33.2930  -28.5780   33.9720 C.3   358  GLU358      0.0429
     90  CG        33.0450  -27.5310   35.0650 C.3   358  GLU358      0.1163
     91  CD        31.7910  -27.8070   35.8900 C.2   358  GLU358      0.3649
     92  OE1       30.9750  -26.8770   36.0550 O.co2 358  GLU358     -0.2457
     93  OE2       31.6190  -28.9440   36.3790 O.co2 358  GLU358     -0.2457
     94  N         34.7040  -25.9180   32.3450 N.am  359  TRP359     -0.1974
     95  CA        34.4870  -24.6840   31.5920 C.3   359  TRP359      0.1640
     96  C         34.9440  -24.8010   30.1460 C.2   359  TRP359      0.2290
     97  O         34.4170  -24.1160   29.2690 O.2   359  TRP359     -0.2864
     98  CB        35.2330  -23.5260   32.2520 C.3   359  TRP359      0.0576
     99  CG        34.5290  -22.8940   33.4260 C.ar  359  TRP359      0.0006
    100  CD1       33.2880  -23.2100   33.9320 C.ar  359  TRP359      0.0946
    101  CD2       35.0280  -21.8250   34.2350 C.ar  359  TRP359      0.0152
    102  NE1       32.9920  -22.4030   35.0030 N.ar  359  TRP359     -0.2442
    103  CE2       34.0350  -21.5420   35.2160 C.ar  359  TRP359      0.0810
    104  CE3       36.2210  -21.0700   34.2320 C.ar  359  TRP359      0.0012
    105  CZ2       34.1980  -20.5330   36.1910 C.ar  359  TRP359      0.0191
    106  CZ3       36.3880  -20.0580   35.2080 C.ar  359  TRP359      0.0001
    107  CH2       35.3750  -19.8050   36.1740 C.ar  359  TRP359      0.0015
@<TRIPOS>BOND
     1     3     4    2
     2     3     2    1
     3     1     2    1
     4     2     5    1
     5    97    96    2
     6     5     6    1
     7    96    95    1
     8    70    69    2
     9     6     7    1
    10    69    68    1
    11    88    87    2
    12    95    98    1
    13    95    94    1
    14     7     8    1
    15    78    77    2
    16    87    94   am
    17    87    86    1
    18    98    99    1
    19    68    67    1
    20    68    71    1
    21    73    71    1
    22     8     9    2
    23    86    85    1
    24    86    89    1
    25    77    85   am
    26    77    76    1
    27    71    72    1
    28    75    76    1
    29    99   100   ar
    30    99   101   ar
    31     9    11    1
    32     9    10    1
    33    76    79    1
    34   100   102   ar
    35    89    90    1
    36    79    80    1
    37   104   101   ar
    38   104   106   ar
    39   101   103   ar
    40    72    74    1
    41    61    60    2
    42   102   103   ar
    43    81    80   ar
    44    81    83   ar
    45    80    82   ar
    46    90    91    1
    47   106   107   ar
    48   103   105   ar
    49    60    59    1
    50    91    92   ar
    51    91    93   ar
    52    83    84   ar
    53   107   105   ar
    54    82    84   ar
    55    58    59    1
    56    59    62    1
    57    27    26    1
    58    18    17   ar
    59    62    63    1
    60    17    16    1
    61    17    19   ar
    62    26    25    1
    63    63    64    1
    64    16    13    1
    65    65    64   ar
    66    64    66   ar
    67    25    24    1
    68    24    21    1
    69    12    13    1
    70    13    14    1
    71    20    21    1
    72    20    14   am
    73    21    22    1
    74    14    15    2
    75    55    57   ar
    76    55    53   ar
    77    57    56   ar
    78    22    23    2
    79    42    41    1
    80    53    52   ar
    81    53    51   ar
    82    52    50   ar
    83    56    54   ar
    84    41    43    1
    85    41    38    1
    86    51    54   ar
    87    51    49   ar
    88    50    49   ar
    89    28    29    1
    90    35    34    2
    91    32    29    1
    92    32    33    1
    93    37    38    1
    94    37    30   am
    95    49    48    1
    96    34    36   am
    97    34    33    1
    98    38    39    1
    99    29    30    1
   100    30    31    2
   101    44    39   am
   102    44    45    1
   103    39    40    2
   104    48    45    1
   105    45    46    1
   106    46    47    2
