@<TRIPOS>MOLECULE
tmp/2hgzA00.pdb
 164 154 0 0 0
SMALL
GASTEIGER

@<TRIPOS>ATOM
      1  N         25.6200   -0.1780   20.2500 N.3    31  GLY31      -0.1210
      2  CA        24.5630    0.8030   20.1310 C.3    31  GLY31       0.1956
      3  C         25.0330    2.2070   19.8240 C.2    31  GLY31       0.2612
      4  O         26.1480    2.6130   20.1690 O.2    31  GLY31      -0.2717
      5  N         24.1660    2.9600   19.1640 N.am   32  ILE32      -0.1965
      6  CA        24.4720    4.3370   18.8300 C.3    32  ILE32       0.1727
      7  C         23.1650    5.1030   18.9130 C.2    32  ILE32       0.2617
      8  O         22.0950    4.5440   18.6740 O.2    32  ILE32      -0.2715
      9  CB        25.0670    4.4600   17.4000 C.3    32  ILE32       0.0290
     10  CG1       25.5580    5.8920   17.1570 C.3    32  ILE32       0.0022
     11  CG2       24.0150    4.0930   16.3660 C.3    32  ILE32       0.0023
     12  CD1       26.2860    6.0690   15.8470 C.3    32  ILE32       0.0001
     13  N         23.2470    6.3760   19.2660 N.am   33  GLY33      -0.1940
     14  CA        22.0420    7.1680   19.3610 C.3    33  GLY33       0.2014
     15  C         22.1420    8.4230   18.5260 C.2    33  GLY33       0.2639
     16  O         23.2220    8.9990   18.3640 O.2    33  GLY33      -0.2714
     17  N         21.0070    8.8490   17.9890 N.am   34  PHE34      -0.1959
     18  CA        20.9730   10.0470   17.1710 C.3    34  PHE34       0.1771
     19  C         19.7990   10.9250   17.5310 C.2    34  PHE34       0.2619
     20  O         18.6800   10.4480   17.7130 O.2    34  PHE34      -0.2715
     21  CB        20.8030    9.7280   15.6820 C.3    34  PHE34       0.0574
     22  CG        21.9290    8.9520   15.0700 C.ar   34  PHE34      -0.0200
     23  CD1       21.7760    7.5980   14.7770 C.ar   34  PHE34      -0.0042
     24  CD2       23.1110    9.5900   14.7000 C.ar   34  PHE34      -0.0042
     25  CE1       22.7820    6.8950   14.1170 C.ar   34  PHE34      -0.0003
     26  CE2       24.1190    8.8930   14.0400 C.ar   34  PHE34      -0.0003
     27  CZ        23.9530    7.5470   13.7470 C.ar   34  PHE34      -0.0000
     28  N         20.0520   12.2160   17.6430 N.am   35  GLU35      -0.1977
     29  CA        18.9580   13.1260   17.8660 C.3    35  GLU35       0.1602
     30  C         18.3820   13.1430   16.4590 C.2    35  GLU35       0.2287
     31  O         19.1220   13.3240   15.4880 O.2    35  GLU35      -0.2864
     32  CB        19.4620   14.5130   18.2270 C.3    35  GLU35       0.0415
     33  CG        19.9150   14.6370   19.6620 C.3    35  GLU35       0.1163
     34  CD        20.2790   16.0510   20.0010 C.2    35  GLU35       0.3649
     35  OE1       19.4430   16.9400   19.7280 O.co2  35  GLU35      -0.2457
     36  OE2       21.3910   16.2720   20.5320 O.co2  35  GLU35      -0.2457
     37  N         21.7440   -1.8760   18.0090 N.3    62  ILE62      -0.1245
     38  CA        20.6850   -1.1090   18.6390 C.3    62  ILE62       0.1561
     39  C         20.8560    0.3420   18.2120 C.2    62  ILE62       0.2260
     40  O         21.9230    0.9360   18.3900 O.2    62  ILE62      -0.2867
     41  CB        20.7480   -1.2210   20.1780 C.3    62  ILE62       0.0252
     42  CG1       20.5230   -2.6860   20.5900 C.3    62  ILE62       0.0019
     43  CG2       19.7020   -0.3100   20.8090 C.3    62  ILE62       0.0019
     44  CD1       20.4080   -2.9280   22.0840 C.3    62  ILE62       0.0001
     45  N         19.3260    3.9990   18.7780 N.3    64  LEU64      -0.1245
     46  CA        18.4370    4.7880   19.5980 C.3    64  LEU64       0.1561
     47  C         18.0280    6.0680   18.8850 C.2    64  LEU64       0.2260
     48  O         18.8700    6.9160   18.5710 O.2    64  LEU64      -0.2867
     49  CB        19.0990    5.1420   20.9260 C.3    64  LEU64       0.0270
     50  CG        18.2190    5.9810   21.8680 C.3    64  LEU64       0.0019
     51  CD1       17.0350    5.1400   22.3520 C.3    64  LEU64       0.0001
     52  CD2       19.0480    6.4820   23.0380 C.3    64  LEU64       0.0001
     53  N         16.9070    9.0290   19.6210 N.3    66  ALA66      -0.1245
     54  CA        16.8630    9.8550   20.8380 C.3    66  ALA66       0.1562
     55  C         15.9280   11.0580   20.7980 C.2    66  ALA66       0.2260
     56  O         16.3830   12.2000   20.7360 O.2    66  ALA66      -0.2867
     57  CB        18.2790   10.3200   21.1800 C.3    66  ALA66       0.0290
     58  N         16.2050   13.2450   24.2040 N.3    69  HIS69      -0.1241
     59  CA        17.4480   14.0100   24.1910 C.3    69  HIS69       0.1621
     60  C         17.3110   15.1920   23.2400 C.2    69  HIS69       0.2264
     61  O         17.7420   16.2980   23.5530 O.2    69  HIS69      -0.2867
     62  CB        18.6360   13.1560   23.7190 C.3    69  HIS69       0.0745
     63  CG        19.1850   12.2350   24.7650 C.ar   69  HIS69       0.0817
     64  ND1       18.6480   10.9910   25.0220 N.ar   69  HIS69      -0.2268
     65  CD2       20.2160   12.3850   25.6300 C.ar   69  HIS69       0.1154
     66  CE1       19.3230   10.4170   26.0010 C.ar   69  HIS69       0.1986
     67  NE2       20.2790   11.2410   26.3880 N.ar   69  HIS69      -0.2212
     68  N         27.9780   19.5170   21.7670 N.3   136  ILE136     -0.1245
     69  CA        26.6450   18.9940   21.4920 C.3   136  ILE136      0.1561
     70  C         25.4920   19.9710   21.7360 C.2   136  ILE136      0.2260
     71  O         24.5380   20.0210   20.9660 O.2   136  ILE136     -0.2867
     72  CB        26.3960   17.7340   22.3450 C.3   136  ILE136      0.0252
     73  CG1       27.4230   16.6620   21.9900 C.3   136  ILE136      0.0019
     74  CG2       24.9810   17.2230   22.1380 C.3   136  ILE136      0.0019
     75  CD1       27.3700   15.4570   22.9030 C.3   136  ILE136      0.0001
     76  N         20.6310   16.4910   29.9450 N.3   150  TYR150     -0.1241
     77  CA        20.9590   15.7320   28.7430 C.3   150  TYR150      0.1605
     78  C         22.0990   14.7190   28.9300 C.2   150  TYR150      0.2264
     79  O         21.9340   13.5300   28.6590 O.2   150  TYR150     -0.2867
     80  CB        21.3110   16.7190   27.6350 C.3   150  TYR150      0.0534
     81  CG        21.5470   16.1200   26.2770 C.ar  150  TYR150     -0.0201
     82  CD1       20.6300   16.3130   25.2460 C.ar  150  TYR150     -0.0009
     83  CD2       22.7160   15.4140   25.9990 C.ar  150  TYR150     -0.0009
     84  CE1       20.8790   15.8200   23.9620 C.ar  150  TYR150      0.0417
     85  CE2       22.9740   14.9180   24.7250 C.ar  150  TYR150      0.0417
     86  CZ        22.0550   15.1290   23.7140 C.ar  150  TYR150      0.1957
     87  OH        22.3280   14.6770   22.4530 O.3   150  TYR150     -0.2866
     88  N         22.0220   10.6270   28.9170 N.3   154  GLN154     -0.1245
     89  CA        22.7520    9.7600   28.0130 C.3   154  GLN154      0.1566
     90  C         23.4420    8.6570   28.8020 C.2   154  GLN154      0.2260
     91  O         23.4730    7.5090   28.3670 O.2   154  GLN154     -0.2867
     92  CB        23.7840   10.5460   27.2180 C.3   154  GLN154      0.0367
     93  CG        24.3890    9.7130   26.1100 C.3   154  GLN154      0.0905
     94  CD        25.0260   10.5560   25.0400 C.2   154  GLN154      0.2608
     95  OE1       24.4610   11.5680   24.6230 O.2   154  GLN154     -0.2717
     96  NE2       26.2050   10.1420   24.5730 N.am  154  GLN154     -0.0878
     97  N         20.9810    5.9650   29.9380 N.3   157  THR157     -0.1203
     98  CA        20.5320    5.1580   28.8230 C.3   157  THR157      0.1994
     99  C         21.5820    4.0910   28.5150 C.2   157  THR157      0.2618
    100  O         21.2390    2.9580   28.1870 O.2   157  THR157     -0.2717
    101  CB        20.2510    6.0430   27.5990 C.3   157  THR157      0.1784
    102  OG1       19.0730    6.8190   27.8480 O.3   157  THR157     -0.2211
    103  CG2       20.0210    5.2040   26.3620 C.3   157  THR157      0.0376
    104  N         22.8610    4.4420   28.6310 N.am  158  SER158     -0.1951
    105  CA        23.9150    3.4600   28.3830 C.3   158  SER158      0.1924
    106  C         23.7470    2.3300   29.3890 C.2   158  SER158      0.2314
    107  O         23.9620    1.1650   29.0740 O.2   158  SER158     -0.2863
    108  CB        25.2970    4.0850   28.5500 C.3   158  SER158      0.2116
    109  OG        25.5420    5.0400   27.5410 O.3   158  SER158     -0.2180
    110  N         20.1170    0.3990   28.3830 N.3   161  LEU161     -0.1245
    111  CA        20.2650   -0.3740   27.1570 C.3   161  LEU161      0.1561
    112  C         21.2300   -1.5410   27.3510 C.2   161  LEU161      0.2260
    113  O         21.1050   -2.5820   26.6980 O.2   161  LEU161     -0.2867
    114  CB        20.7620    0.5320   26.0330 C.3   161  LEU161      0.0270
    115  CG        19.7800    0.9990   24.9560 C.3   161  LEU161      0.0019
    116  CD1       18.3590    0.9880   25.4580 C.3   161  LEU161      0.0001
    117  CD2       20.1890    2.3900   24.5110 C.3   161  LEU161      0.0001
    118  N         24.4330   -2.1630   26.4650 N.3   163  VAL163     -0.1245
    119  CA        25.1650   -2.6530   25.3050 C.3   163  VAL163      0.1561
    120  C         26.6220   -2.8850   25.6970 C.2   163  VAL163      0.2260
    121  O         27.0990   -2.3130   26.6690 O.2   163  VAL163     -0.2867
    122  CB        25.1150   -1.6500   24.1270 C.3   163  VAL163      0.0252
    123  CG1       23.6870   -1.4930   23.6440 C.3   163  VAL163      0.0019
    124  CG2       25.6920   -0.3050   24.5550 C.3   163  VAL163      0.0019
    125  N         29.4700    1.0330   22.6870 N.3   166  ALA166     -0.1231
    126  CA        28.7290    2.2440   22.3930 C.3   166  ALA166      0.1694
    127  C         29.5580    2.9890   21.3670 C.2   166  ALA166      0.2591
    128  O         30.7670    3.1970   21.5480 O.2   166  ALA166     -0.2718
    129  CB        28.5460    3.0700   23.6440 C.3   166  ALA166      0.0304
    130  N         28.9030    3.3670   20.2750 N.am  167  VAL167     -0.1980
    131  CA        29.5620    4.0660   19.1850 C.3   167  VAL167      0.1595
    132  C         29.0730    5.5020   19.0660 C.2   167  VAL167      0.2287
    133  O         27.9120    5.7870   19.3170 O.2   167  VAL167     -0.2864
    134  CB        29.2900    3.3480   17.8470 C.3   167  VAL167      0.0276
    135  CG1       29.9870    4.0800   16.7070 C.3   167  VAL167      0.0022
    136  CG2       29.7350    1.8910   17.9430 C.3   167  VAL167      0.0022
    137  N         32.8510   13.9770   19.3190 N.3   171  GLU171     -0.1231
    138  CA        32.2240   15.0310   20.1000 C.3   171  GLU171      0.1699
    139  C         31.4490   14.4490   21.2730 C.2   171  GLU171      0.2592
    140  O         31.0500   15.1750   22.1920 O.2   171  GLU171     -0.2718
    141  CB        31.2940   15.8960   19.2290 C.3   171  GLU171      0.0402
    142  CG        29.9210   15.3100   18.9150 C.3   171  GLU171      0.1161
    143  CD        29.9650   14.2390   17.8470 C.2   171  GLU171      0.3649
    144  OE1       31.0420   14.0580   17.2380 O.co2 171  GLU171     -0.2457
    145  OE2       28.9220   13.5830   17.6140 O.co2 171  GLU171     -0.2457
    146  N         31.2560   13.1340   21.2480 N.am  172  GLN172     -0.1979
    147  CA        30.5210   12.4520   22.3070 C.3   172  GLN172      0.1601
    148  C         31.4240   11.9200   23.4140 C.2   172  GLN172      0.2287
    149  O         30.9240   11.4810   24.4480 O.2   172  GLN172     -0.2864
    150  CB        29.7430   11.2650   21.7340 C.3   172  GLN172      0.0394
    151  CG        28.8270   11.5720   20.5620 C.3   172  GLN172      0.0908
    152  CD        27.6980   12.5160   20.9200 C.2   172  GLN172      0.2608
    153  OE1       27.1000   12.4160   21.9940 O.2   172  GLN172     -0.2717
    154  NE2       27.3890   13.4330   20.0100 N.am  172  GLN172     -0.0878
    155  N         30.8760   10.3050   27.1870 N.3   176  HIS176     -0.1241
    156  CA        31.2340    8.8960   27.3240 C.3   176  HIS176      0.1621
    157  C         32.2060    8.6730   28.4810 C.2   176  HIS176      0.2264
    158  O         32.1400    7.6530   29.1580 O.2   176  HIS176     -0.2867
    159  CB        31.8390    8.3600   26.0200 C.3   176  HIS176      0.0745
    160  CG        30.8390    8.1630   24.9250 C.ar  176  HIS176      0.0817
    161  ND1       31.1960    7.7770   23.6510 N.ar  176  HIS176     -0.2268
    162  CD2       29.4910    8.3050   24.9110 C.ar  176  HIS176      0.1154
    163  CE1       30.1130    7.6920   22.8990 C.ar  176  HIS176      0.1986
    164  NE2       29.0650    8.0080   23.6390 N.ar  176  HIS176     -0.2212
@<TRIPOS>BOND
     1    27    26   ar
     2    27    25   ar
     3    26    24   ar
     4    25    23   ar
     5    24    22   ar
     6    23    22   ar
     7    22    21    1
     8    31    30    2
     9    21    18    1
    10    12    10    1
    11    11     9    1
    12    30    29    1
    13   135   134    1
    14    10     9    1
    15    18    19    1
    16    18    17    1
    17   144   143   ar
    18     9     6    1
    19    19    28   am
    20    19    20    2
    21   145   143   ar
    22    28    29    1
    23   134   136    1
    24   134   131    1
    25   143   142    1
    26    29    32    1
    27    17    15   am
    28    37    38    1
    29    39    40    2
    30    39    38    1
    31    32    33    1
    32    16    15    2
    33    15    14    1
    34    48    47    2
    35    38    41    1
    36     8     7    2
    37    45    46    1
    38     6     7    1
    39     6     5    1
    40    47    46    1
    41     7    13   am
    42   142   141    1
    43   132   131    1
    44   132   133    2
    45     5     3   am
    46   131   130    1
    47   141   138    1
    48    13    14    1
    49   137   138    1
    50    46    49    1
    51    53    54    1
    52    33    34    1
    53    35    34   ar
    54     3     2    1
    55     3     4    2
    56    34    36   ar
    57   154   152   am
    58   138   139    1
    59     2     1    1
    60    41    42    1
    61    41    43    1
    62   130   127   am
    63   151   152    1
    64   151   150    1
    65    42    44    1
    66    56    55    2
    67    55    54    1
    68    54    57    1
    69   152   153    2
    70    49    50    1
    71    71    70    2
    72   146   139   am
    73   146   147    1
    74   139   140    2
    75   127   128    2
    76   127   126    1
    77    69    70    1
    78    69    68    1
    79    69    72    1
    80   150   147    1
    81    50    51    1
    82    50    52    1
    83    73    72    1
    84    73    75    1
    85    74    72    1
    86   147   148    1
    87   126   125    1
    88   126   129    1
    89    87    86    1
    90   163   164   ar
    91   163   161   ar
    92    60    61    2
    93    60    59    1
    94   148   149    2
    95   164   162   ar
    96   123   122    1
    97   161   160   ar
    98    86    84   ar
    99    86    85   ar
   100    62    59    1
   101    62    63    1
   102    84    82   ar
   103   122   124    1
   104   122   119    1
   105    59    58    1
   106   117   115    1
   107    96    94   am
   108    95    94    2
   109    85    83   ar
   110    63    64   ar
   111    63    65   ar
   112   162   160   ar
   113   160   159    1
   114   115   116    1
   115   115   114    1
   116    64    66   ar
   117    94    93    1
   118    82    81   ar
   119   119   120    1
   120   119   118    1
   121    65    67   ar
   122   120   121    2
   123    83    81   ar
   124    66    67   ar
   125   159   156    1
   126   114   111    1
   127    93    92    1
   128    81    80    1
   129   103   101    1
   130   113   112    2
   131   111   112    1
   132   111   110    1
   133   155   156    1
   134    92    89    1
   135   156   157    1
   136   109   108    1
   137   101   102    1
   138   101    98    1
   139    80    77    1
   140    89    90    1
   141    89    88    1
   142   100    99    2
   143    91    90    2
   144   105   108    1
   145   105   104    1
   146   105   106    1
   147   157   158    2
   148    99   104   am
   149    99    98    1
   150    79    78    2
   151    77    78    1
   152    77    76    1
   153    98    97    1
   154   107   106    2
