@<TRIPOS>MOLECULE
tmp/2hh0B00.pdb
 177 171 0 0 0
SMALL
GASTEIGER

@<TRIPOS>ATOM
      1  N         59.7760   76.8340   24.6280 N.3    28  ASN28      -0.1240
      2  CA        60.7780   77.3870   23.7250 C.3    28  ASN28       0.1653
      3  C         61.8740   76.3480   23.5260 C.2    28  ASN28       0.2266
      4  O         62.4650   75.8720   24.4880 O.2    28  ASN28      -0.2867
      5  CB        61.3540   78.6790   24.2910 C.3    28  ASN28       0.1155
      6  CG        62.2760   79.3780   23.3160 C.2    28  ASN28       0.2627
      7  OD1       63.2300   80.0350   23.7200 O.2    28  ASN28      -0.2716
      8  ND2       61.9930   79.2440   22.0210 N.am   28  ASN28      -0.0877
      9  N         65.0080   76.4490   22.6080 N.3    30  GLU30      -0.1231
     10  CA        66.3630   76.6660   23.1040 C.3    30  GLU30       0.1699
     11  C         66.5470   76.3390   24.5730 C.2    30  GLU30       0.2592
     12  O         67.6740   76.2530   25.0410 O.2    30  GLU30      -0.2718
     13  CB        66.8810   78.0700   22.8000 C.3    30  GLU30       0.0402
     14  CG        65.9700   79.1860   23.2030 C.3    30  GLU30       0.1161
     15  CD        65.4240   79.9130   22.0000 C.2    30  GLU30       0.3649
     16  OE1       65.7310   81.1140   21.8440 O.co2  30  GLU30      -0.2457
     17  OE2       64.6910   79.2830   21.2060 O.co2  30  GLU30      -0.2457
     18  N         65.4530   76.1220   25.2990 N.am   31  ASP31      -0.1960
     19  CA        65.5670   75.7780   26.7120 C.3    31  ASP31       0.1840
     20  C         66.0070   74.3230   26.8830 C.2    31  ASP31       0.2623
     21  O         66.0170   73.8000   28.0010 O.2    31  ASP31      -0.2715
     22  CB        64.2560   76.0840   27.4880 C.3    31  ASP31       0.1450
     23  CG        63.1420   75.0260   27.2920 C.2    31  ASP31       0.3671
     24  OD1       62.0850   75.1620   27.9450 O.co2  31  ASP31      -0.2456
     25  OD2       63.2830   74.0740   26.5000 O.co2  31  ASP31      -0.2456
     26  N         66.3820   73.6850   25.7700 N.am   32  SER32      -0.1936
     27  CA        66.7980   72.2820   25.7810 C.3    32  SER32       0.2055
     28  C         67.8160   71.9170   24.7100 C.2    32  SER32       0.2643
     29  O         68.0980   72.7000   23.8090 O.2    32  SER32      -0.2714
     30  CB        65.5810   71.3770   25.5660 C.3    32  SER32       0.2130
     31  OG        64.5930   71.5650   26.5590 O.3    32  SER32      -0.2179
     32  N         68.3580   70.7080   24.8400 N.am   33  TYR33      -0.1973
     33  CA        69.2970   70.1280   23.8830 C.3    33  TYR33       0.1639
     34  C         68.4130   69.2250   23.0070 C.2    33  TYR33       0.2290
     35  O         67.6070   68.4590   23.5400 O.2    33  TYR33      -0.2864
     36  CB        70.2930   69.2230   24.6080 C.3    33  TYR33       0.0560
     37  CG        71.6140   69.8360   25.0170 C.ar   33  TYR33      -0.0198
     38  CD1       72.6510   69.0230   25.4780 C.ar   33  TYR33      -0.0009
     39  CD2       71.8400   71.2070   24.9480 C.ar   33  TYR33      -0.0009
     40  CE1       73.8690   69.5510   25.8560 C.ar   33  TYR33       0.0417
     41  CE2       73.0670   71.7480   25.3290 C.ar   33  TYR33       0.0417
     42  CZ        74.0710   70.9090   25.7790 C.ar   33  TYR33       0.1957
     43  OH        75.2860   71.4180   26.1480 O.3    33  TYR33      -0.2866
     44  N         68.3240   66.1510   20.4100 N.3    35  HIS35      -0.1241
     45  CA        69.0730   65.0310   19.8440 C.3    35  HIS35       0.1621
     46  C         68.3600   64.3870   18.6620 C.2    35  HIS35       0.2264
     47  O         67.1300   64.4250   18.5690 O.2    35  HIS35      -0.2867
     48  CB        69.2840   63.9480   20.9000 C.3    35  HIS35       0.0745
     49  CG        70.1250   64.3760   22.0590 C.ar   35  HIS35       0.0817
     50  ND1       71.4740   64.1050   22.1370 N.ar   35  HIS35      -0.2268
     51  CD2       69.8000   65.0160   23.2060 C.ar   35  HIS35       0.1154
     52  CE1       71.9430   64.5560   23.2850 C.ar   35  HIS35       0.1986
     53  NE2       70.9480   65.1120   23.9510 N.ar   35  HIS35      -0.2212
     54  N         68.1420   60.6620   16.6420 N.3    37  VAL37      -0.1245
     55  CA        68.4460   59.2360   16.6750 C.3    37  VAL37       0.1561
     56  C         67.8760   58.4930   15.4620 C.2    37  VAL37       0.2260
     57  O         66.7340   58.7020   15.0610 O.2    37  VAL37      -0.2867
     58  CB        67.9610   58.6330   18.0260 C.3    37  VAL37       0.0252
     59  CG1       68.1360   57.1040   18.0590 C.3    37  VAL37       0.0019
     60  CG2       68.7310   59.2990   19.1750 C.3    37  VAL37       0.0019
     61  N         72.8130   57.1300   17.8160 N.3    47  TRP47      -0.1241
     62  CA        72.8450   58.5620   18.0620 C.3    47  TRP47       0.1605
     63  C         73.5290   59.2360   16.8780 C.2    47  TRP47       0.2264
     64  O         74.6020   58.8060   16.4570 O.2    47  TRP47      -0.2867
     65  CB        73.6090   58.8430   19.3570 C.3    47  TRP47       0.0550
     66  CG        73.6080   60.2710   19.7630 C.ar   47  TRP47       0.0003
     67  CD1       72.5590   60.9800   20.2700 C.ar   47  TRP47       0.0946
     68  CD2       74.7110   61.1780   19.6970 C.ar   47  TRP47       0.0152
     69  NE1       72.9390   62.2760   20.5210 N.ar   47  TRP47      -0.2442
     70  CE2       74.2570   62.4240   20.1780 C.ar   47  TRP47       0.0810
     71  CE3       76.0420   61.0590   19.2760 C.ar   47  TRP47       0.0012
     72  CZ2       75.0850   63.5450   20.2510 C.ar   47  TRP47       0.0191
     73  CZ3       76.8650   62.1760   19.3470 C.ar   47  TRP47       0.0001
     74  CH2       76.3810   63.4030   19.8320 C.ar   47  TRP47       0.0015
     75  N         73.5970   66.1610   18.3880 N.3    50  ARG50      -0.1245
     76  CA        72.6970   67.0090   19.1670 C.3    50  ARG50       0.1563
     77  C         72.9780   68.5000   18.9680 C.2    50  ARG50       0.2260
     78  O         74.1210   68.9050   18.7450 O.2    50  ARG50      -0.2867
     79  CB        72.7360   66.6220   20.6590 C.3    50  ARG50       0.0307
     80  CG        73.9770   67.0440   21.4250 C.3    50  ARG50       0.0489
     81  CD        73.7420   68.3460   22.1920 C.3    50  ARG50       0.2205
     82  NE        74.9650   68.9040   22.7790 N.pl3  50  ARG50      -0.0865
     83  CZ        75.6420   69.9410   22.2790 C.cat  50  ARG50       0.5346
     84  NH1       75.2280   70.5530   21.1680 N.pl3  50  ARG50       0.1354
     85  NH2       76.7390   70.3690   22.8940 N.pl3  50  ARG50       0.1354
     86  N         72.3040   72.7290   20.2400 N.3    52  ASP52      -0.1239
     87  CA        71.9890   73.6920   21.2900 C.3    52  ASP52       0.1674
     88  C         71.4110   74.8520   20.4790 C.2    52  ASP52       0.2266
     89  O         72.1340   75.7740   20.1060 O.2    52  ASP52      -0.2867
     90  CB        73.2740   74.1250   22.0110 C.3    52  ASP52       0.1410
     91  CG        73.0060   74.9510   23.2650 C.2    52  ASP52       0.3668
     92  OD1       73.9730   75.1970   24.0210 O.co2  52  ASP52      -0.2456
     93  OD2       71.8460   75.3550   23.4970 O.co2  52  ASP52      -0.2456
     94  N         70.0920   77.4580   21.0610 N.3    54  GLU54      -0.1245
     95  CA        70.4140   78.7720   21.6040 C.3    54  GLU54       0.1567
     96  C         71.4510   79.4780   20.7500 C.2    54  GLU54       0.2260
     97  O         71.3010   80.6510   20.4310 O.2    54  GLU54      -0.2867
     98  CB        70.9380   78.6200   23.0260 C.3    54  GLU54       0.0388
     99  CG        70.1030   79.3330   24.0580 C.3    54  GLU54       0.1160
    100  CD        70.8030   80.5440   24.6250 C.2    54  GLU54       0.3649
    101  OE1       71.1150   80.5260   25.8390 O.co2  54  GLU54      -0.2457
    102  OE2       71.0440   81.5050   23.8600 O.co2  54  GLU54      -0.2457
    103  N         77.0920   68.8290   18.0670 N.3    59  LYS59      -0.1245
    104  CA        78.0360   67.7410   18.3520 C.3    59  LYS59       0.1561
    105  C         77.5030   66.5240   17.5860 C.2    59  LYS59       0.2260
    106  O         76.2980   66.2480   17.6310 O.2    59  LYS59      -0.2867
    107  CB        78.0490   67.3990   19.8410 C.3    59  LYS59       0.0271
    108  CG        78.5340   68.4910   20.7600 C.3    59  LYS59       0.0035
    109  CD        80.0250   68.7140   20.6420 C.3    59  LYS59       0.0206
    110  CE        80.5160   69.6410   21.7460 C.3    59  LYS59       0.1093
    111  NZ        81.9640   69.9330   21.6120 N.3    59  LYS59      -0.1314
    112  N         64.6360   63.6020   20.1540 N.3    97  GLY97      -0.1210
    113  CA        64.3830   63.5410   21.5820 C.3    97  GLY97       0.1956
    114  C         64.8060   64.8180   22.2700 C.2    97  GLY97       0.2612
    115  O         65.8110   65.4170   21.8940 O.2    97  GLY97      -0.2717
    116  N         64.0320   65.2470   23.2640 N.am   98  ARG98      -0.1965
    117  CA        64.3270   66.4700   24.0130 C.3    98  ARG98       0.1729
    118  C         65.2770   66.2280   25.1790 C.2    98  ARG98       0.2617
    119  O         65.1810   65.2110   25.8680 O.2    98  ARG98      -0.2715
    120  CB        63.0420   67.0790   24.5600 C.3    98  ARG98       0.0348
    121  CG        63.2420   68.3990   25.2740 C.3    98  ARG98       0.0492
    122  CD        62.0490   68.7200   26.1480 C.3    98  ARG98       0.2205
    123  NE        62.0840   70.0850   26.6550 N.pl3  98  ARG98      -0.0865
    124  CZ        61.2130   70.5840   27.5280 C.cat  98  ARG98       0.5346
    125  NH1       60.2310   69.8320   28.0110 N.pl3  98  ARG98       0.1354
    126  NH2       61.3030   71.8560   27.8930 N.pl3  98  ARG98       0.1354
    127  N         66.1870   67.1750   25.3870 N.am   99  GLY99      -0.1940
    128  CA        67.1390   67.0940   26.4800 C.3    99  GLY99       0.2014
    129  C         66.9830   68.3460   27.3190 C.2    99  GLY99       0.2639
    130  O         67.8540   69.2100   27.3160 O.2    99  GLY99      -0.2714
    131  N         65.8610   68.4420   28.0270 N.am  100  ALA100     -0.1963
    132  CA        65.5400   69.6010   28.8570 C.3   100  ALA100      0.1728
    133  C         66.4590   69.8300   30.0510 C.2   100  ALA100      0.2616
    134  O         67.2350   68.9490   30.4290 O.2   100  ALA100     -0.2715
    135  CB        64.0980   69.5180   29.3240 C.3   100  ALA100      0.0334
    136  N         66.3640   71.0290   30.6340 N.am  101  TYR101     -0.1974
    137  CA        67.1640   71.3950   31.7990 C.3   101  TYR101      0.1639
    138  C         66.7610   70.4910   32.9500 C.2   101  TYR101      0.2290
    139  O         67.5990   69.8040   33.5340 O.2   101  TYR101     -0.2864
    140  CB        66.9320   72.8550   32.1890 C.3   101  TYR101      0.0560
    141  CG        67.8360   73.3050   33.3180 C.ar  101  TYR101     -0.0198
    142  CD1       69.2170   73.1250   33.2320 C.ar  101  TYR101     -0.0009
    143  CD2       67.3150   73.8850   34.4820 C.ar  101  TYR101     -0.0009
    144  CE1       70.0580   73.5040   34.2670 C.ar  101  TYR101      0.0417
    145  CE2       68.1540   74.2700   35.5270 C.ar  101  TYR101      0.0417
    146  CZ        69.5270   74.0730   35.4080 C.ar  101  TYR101      0.1957
    147  OH        70.3850   74.4320   36.4200 O.3   101  TYR101     -0.2866
    148  N         65.8770   67.4670   33.9290 N.3   103  ILE103     -0.1245
    149  CA        65.9630   66.1230   33.3570 C.3   103  ILE103      0.1561
    150  C         64.6430   65.3500   33.3510 C.2   103  ILE103      0.2260
    151  O         64.4020   64.5320   32.4650 O.2   103  ILE103     -0.2867
    152  CB        67.0150   65.2740   34.0930 C.3   103  ILE103      0.0252
    153  CG1       68.2970   66.0800   34.3030 C.3   103  ILE103      0.0019
    154  CG2       67.3460   64.0420   33.2760 C.3   103  ILE103      0.0019
    155  CD1       69.3530   65.3440   35.0990 C.3   103  ILE103      0.0001
    156  N         62.0320   65.2910   29.9770 N.3   106  ASP106     -0.1239
    157  CA        62.4340   64.7800   28.6720 C.3   106  ASP106      0.1674
    158  C         61.4160   63.8100   28.0610 C.2   106  ASP106      0.2266
    159  O         60.8630   62.9480   28.7490 O.2   106  ASP106     -0.2867
    160  CB        63.7780   64.0670   28.7760 C.3   106  ASP106      0.1410
    161  CG        64.9130   64.9870   29.1720 C.2   106  ASP106      0.3668
    162  OD1       66.0660   64.4920   29.2040 O.co2 106  ASP106     -0.2456
    163  OD2       64.6680   66.1870   29.4450 O.co2 106  ASP106     -0.2456
    164  N         60.2260   62.0250   23.7920 N.3   108  TRP108     -0.1241
    165  CA        60.6010   61.8390   22.3890 C.3   108  TRP108      0.1605
    166  C         59.4970   62.1170   21.3720 C.2   108  TRP108      0.2264
    167  O         58.3170   62.2000   21.7180 O.2   108  TRP108     -0.2867
    168  CB        61.0710   60.4110   22.1620 C.3   108  TRP108      0.0550
    169  CG        62.2560   60.0110   22.9390 C.ar  108  TRP108      0.0003
    170  CD1       62.3100   59.7600   24.2740 C.ar  108  TRP108      0.0946
    171  CD2       63.5500   59.7080   22.4160 C.ar  108  TRP108      0.0152
    172  NE1       63.5580   59.3030   24.6180 N.ar  108  TRP108     -0.2442
    173  CE2       64.3390   59.2600   23.4930 C.ar  108  TRP108      0.0810
    174  CE3       64.1180   59.7650   21.1390 C.ar  108  TRP108      0.0012
    175  CZ2       65.6670   58.8680   23.3330 C.ar  108  TRP108      0.0191
    176  CZ3       65.4350   59.3760   20.9790 C.ar  108  TRP108      0.0001
    177  CH2       66.1960   58.9310   22.0710 C.ar  108  TRP108      0.0015
@<TRIPOS>BOND
     1    57    56    2
     2    56    55    1
     3    64    63    2
     4    54    55    1
     5    55    58    1
     6    63    62    1
     7   105   106    2
     8   105   104    1
     9    61    62    1
    10    58    59    1
    11    58    60    1
    12    62    65    1
    13   103   104    1
    14   104   107    1
    15    75    76    1
    16    47    46    2
    17    46    45    1
    18    78    77    2
    19    77    76    1
    20    76    79    1
    21    71    73   ar
    22    71    68   ar
    23    73    74   ar
    24    65    66    1
    25    68    66   ar
    26    68    70   ar
    27    66    67   ar
    28    74    72   ar
    29   107   108    1
    30    45    44    1
    31    45    48    1
    32    89    88    2
    33   112   113    1
    34    70    72   ar
    35    70    69   ar
    36    86    87    1
    37    67    69   ar
    38    97    96    2
    39    88    87    1
    40   109   108    1
    41   109   110    1
    42    79    80    1
    43    96    95    1
    44    48    49    1
    45   176   174   ar
    46   176   177   ar
    47    94    95    1
    48   174   171   ar
    49    84    83    1
    50    17    15   ar
    51    87    90    1
    52   166   167    2
    53   166   165    1
    54    80    81    1
    55   113   114    1
    56    95    98    1
    57   111   110    1
    58    16    15   ar
    59   115   114    2
    60    15    14    1
    61    90    91    1
    62     8     6   am
    63    49    50   ar
    64    49    51   ar
    65   177   175   ar
    66    50    52   ar
    67   168   165    1
    68   168   169    1
    69    81    82    1
    70   114   116   am
    71    83    82    2
    72    83    85    1
    73   165   164    1
    74   171   169   ar
    75   171   173   ar
    76     9    10    1
    77    13    10    1
    78    13    14    1
    79   169   170   ar
    80    34    35    2
    81    34    33    1
    82    98    99    1
    83    10    11    1
    84    51    53   ar
    85   116   117    1
    86    91    93   ar
    87    91    92   ar
    88    52    53   ar
    89     6     7    2
    90     6     5    1
    91   175   173   ar
    92   173   172   ar
    93     3     2    1
    94     3     4    2
    95     2     5    1
    96     2     1    1
    97    29    28    2
    98   102   100   ar
    99    33    36    1
   100    33    32    1
   101   117   120    1
   102   117   118    1
   103    99   100    1
   104   170   172   ar
   105   120   121    1
   106    11    12    2
   107    11    18   am
   108    36    37    1
   109   100   101   ar
   110    28    32   am
   111    28    27    1
   112    39    37   ar
   113    39    41   ar
   114    37    38   ar
   115   118   127   am
   116   118   119    2
   117   121   122    1
   118    18    19    1
   119    41    42   ar
   120   127   128    1
   121    38    40   ar
   122    30    27    1
   123    30    31    1
   124    26    27    1
   125    26    20   am
   126    42    40   ar
   127    42    43    1
   128   122   123    1
   129   128   129    1
   130    25    23   ar
   131   123   124    2
   132    19    20    1
   133    19    22    1
   134    20    21    2
   135    23    22    1
   136    23    24   ar
   137   130   129    2
   138   129   131   am
   139   124   126    1
   140   124   125    1
   141   131   132    1
   142   158   157    1
   143   158   159    2
   144   157   160    1
   145   157   156    1
   146   160   161    1
   147   132   135    1
   148   132   133    1
   149   161   162   ar
   150   161   163   ar
   151   133   134    2
   152   133   136   am
   153   136   137    1
   154   137   140    1
   155   137   138    1
   156   140   141    1
   157   151   150    2
   158   138   139    2
   159   142   141   ar
   160   142   144   ar
   161   154   152    1
   162   141   143   ar
   163   150   149    1
   164   149   148    1
   165   149   152    1
   166   152   153    1
   167   144   146   ar
   168   153   155    1
   169   143   145   ar
   170   146   145   ar
   171   146   147    1
