@<TRIPOS>MOLECULE
tmp/2hh5B00.pdb
 168 164 0 0 0
SMALL
GASTEIGER

@<TRIPOS>ATOM
      1  N         23.6270   14.6020  -23.3080 N.3    19  GLN19      -0.1245
      2  CA        22.5560   15.5780  -23.1110 C.3    19  GLN19       0.1566
      3  C         22.4540   16.0940  -21.6720 C.2    19  GLN19       0.2260
      4  O         21.9160   17.1750  -21.4230 O.2    19  GLN19      -0.2867
      5  CB        21.2130   15.0530  -23.6470 C.3    19  GLN19       0.0367
      6  CG        20.6220   13.9140  -22.9730 C.3    19  GLN19       0.0905
      7  CD        19.3650   13.4300  -23.7130 C.2    19  GLN19       0.2608
      8  OE1       19.4160   12.7380  -24.7550 O.2    19  GLN19      -0.2717
      9  NE2       18.2390   13.8230  -23.1930 N.am   19  GLN19      -0.0878
     10  N         16.0020   16.9200  -21.3430 N.3    23  GLY23      -0.1225
     11  CA        15.3060   15.9630  -22.2020 C.3    23  GLY23       0.1811
     12  C         15.3640   16.4200  -23.6270 C.2    23  GLY23       0.2280
     13  O         14.3530   16.7090  -24.2560 O.2    23  GLY23      -0.2866
     14  N         16.7230   14.6750  -26.1640 N.3    25  CYS25      -0.1221
     15  CA        16.9520   13.5620  -27.0970 C.3    25  CYS25       0.1808
     16  C         16.3790   13.8010  -28.5040 C.2    25  CYS25       0.2601
     17  O         17.0040   13.4450  -29.5110 O.2    25  CYS25      -0.2717
     18  CB        16.3790   12.2630  -26.5080 C.3    25  CYS25       0.0970
     19  SG        14.6470   12.3250  -26.0330 S.3    25  CYS25      -0.0800
     20  N         15.1860   14.3860  -28.5670 N.am   26  TRP26      -0.1976
     21  CA        14.5320   14.7370  -29.8190 C.3    26  TRP26       0.1640
     22  C         15.3920   15.6590  -30.6570 C.2    26  TRP26       0.2290
     23  O         15.4460   15.5230  -31.8630 O.2    26  TRP26      -0.2864
     24  CB        13.1740   15.3830  -29.5780 C.3    26  TRP26       0.0576
     25  CG        13.2500   16.6160  -28.7050 C.ar   26  TRP26       0.0006
     26  CD1       13.3990   16.6580  -27.3730 C.ar   26  TRP26       0.0946
     27  CD2       13.2050   17.9760  -29.1520 C.ar   26  TRP26       0.0152
     28  NE1       13.4450   17.9830  -26.9270 N.ar   26  TRP26      -0.2442
     29  CE2       13.3160   18.8020  -28.0110 C.ar   26  TRP26       0.0810
     30  CE3       13.0890   18.5720  -30.4060 C.ar   26  TRP26       0.0012
     31  CZ2       13.3430   20.1850  -28.0970 C.ar   26  TRP26       0.0191
     32  CZ3       13.1110   19.9590  -30.4840 C.ar   26  TRP26       0.0001
     33  CH2       13.1920   20.7430  -29.3380 C.ar   26  TRP26       0.0015
     34  N          5.2260   22.2330  -30.9550 N.3    62  GLY62      -0.1225
     35  CA         4.8330   21.2670  -29.9440 C.3    62  GLY62       0.1811
     36  C          5.9810   20.8170  -29.0720 C.2    62  GLY62       0.2280
     37  O          5.8530   19.8470  -28.3370 O.2    62  GLY62      -0.2866
     38  N          8.9960   21.3900  -26.1190 N.3    64  LYS64      -0.1245
     39  CA         9.1160   21.9400  -24.7940 C.3    64  LYS64       0.1561
     40  C         10.5500   21.8860  -24.2920 C.2    64  LYS64       0.2260
     41  O         10.7940   21.6040  -23.1170 O.2    64  LYS64      -0.2867
     42  CB         8.1720   21.1840  -23.8550 C.3    64  LYS64       0.0271
     43  CG         6.7130   21.3630  -24.2550 C.3    64  LYS64       0.0035
     44  CD         5.7490   20.4150  -23.5430 C.3    64  LYS64       0.0206
     45  CE         4.3380   20.5270  -24.1890 C.3    64  LYS64       0.1093
     46  NZ         3.4830   19.3220  -23.9220 N.3    64  LYS64      -0.1314
     47  N         13.8380   21.2010  -22.7900 N.3    66  CYS66      -0.1221
     48  CA        14.3730   20.1190  -21.9720 C.3    66  CYS66       0.1808
     49  C         13.2900   19.1940  -21.4530 C.2    66  CYS66       0.2601
     50  O         13.6130   18.1830  -20.8340 O.2    66  CYS66      -0.2717
     51  CB        15.1830   20.6510  -20.7960 C.3    66  CYS66       0.0970
     52  SG        16.7850   21.3770  -21.2460 S.3    66  CYS66      -0.0800
     53  N         12.0320   19.5560  -21.6710 N.am   67  ASN67      -0.1960
     54  CA        10.8820   18.7010  -21.3200 C.3    67  ASN67       0.1819
     55  C         10.3270   17.8840  -22.4930 C.2    67  ASN67       0.2622
     56  O          9.2410   17.2970  -22.4100 O.2    67  ASN67      -0.2715
     57  CB         9.7780   19.5460  -20.7030 C.3    67  ASN67       0.1195
     58  CG        10.1180   20.0090  -19.3180 C.2    67  ASN67       0.2630
     59  OD1       10.5720   19.2360  -18.4830 O.2    67  ASN67      -0.2716
     60  ND2        9.8680   21.2750  -19.0500 N.am   67  ASN67      -0.0877
     61  N         11.0400   17.8850  -23.6110 N.am   68  GLY68      -0.1940
     62  CA        10.7620   16.9620  -24.6820 C.3    68  GLY68       0.2014
     63  C         10.2990   17.6070  -25.9600 C.2    68  GLY68       0.2639
     64  O          9.8790   18.7760  -25.9790 O.2    68  GLY68      -0.2714
     65  N         10.3470   16.8400  -27.0480 N.am   69  GLY69      -0.1939
     66  CA         9.8840   17.3490  -28.3380 C.3    69  GLY69       0.2014
     67  C          9.8130   16.2800  -29.3960 C.2    69  GLY69       0.2639
     68  O          9.8630   15.0880  -29.0790 O.2    69  GLY69      -0.2714
     69  N          9.7270   16.7150  -30.6460 N.am   70  PHE70      -0.1959
     70  CA         9.5270   15.8410  -31.7910 C.3    70  PHE70       0.1771
     71  C         10.5780   16.1410  -32.8430 C.2    70  PHE70       0.2619
     72  O         10.9210   17.3100  -33.0580 O.2    70  PHE70      -0.2715
     73  CB         8.1910   16.1140  -32.4300 C.3    70  PHE70       0.0574
     74  CG         7.0140   15.8910  -31.5300 C.ar   70  PHE70      -0.0200
     75  CD1        6.4120   14.6440  -31.4600 C.ar   70  PHE70      -0.0042
     76  CD2        6.4820   16.9330  -30.7890 C.ar   70  PHE70      -0.0042
     77  CE1        5.3240   14.4340  -30.6680 C.ar   70  PHE70      -0.0003
     78  CE2        5.3850   16.7250  -29.9850 C.ar   70  PHE70      -0.0003
     79  CZ         4.8180   15.4670  -29.9010 C.ar   70  PHE70      -0.0000
     80  N         11.0710   15.0890  -33.4910 N.am   71  MET71      -0.1963
     81  CA        12.1050   15.2400  -34.5190 C.3    71  MET71       0.1736
     82  C         11.4850   15.8520  -35.7930 C.2    71  MET71       0.2617
     83  O         12.0510   16.7670  -36.3660 O.2    71  MET71      -0.2715
     84  CB        12.8050   13.8970  -34.7710 C.3    71  MET71       0.0427
     85  CG        13.6040   13.3540  -33.5460 C.3    71  MET71       0.0599
     86  SD        12.6140   12.5930  -32.2360 S.3    71  MET71      -0.1393
     87  CE        12.2520   11.0500  -33.0730 C.3    71  MET71       0.0692
     88  N         10.3130   15.3850  -36.2030 N.am   72  THR72      -0.1951
     89  CA         9.6650   15.9280  -37.3940 C.3    72  THR72       0.1897
     90  C          9.4430   17.4250  -37.3020 C.2    72  THR72       0.2313
     91  O          9.7810   18.1500  -38.2410 O.2    72  THR72      -0.2863
     92  CB         8.3230   15.2740  -37.7000 C.3    72  THR72       0.1794
     93  OG1        7.4760   15.3240  -36.5360 O.3    72  THR72      -0.2208
     94  CG2        8.5160   13.8430  -38.1830 C.3    72  THR72       0.0378
     95  N         11.7340    7.3140  -32.8080 N.3   137  GLY137     -0.1225
     96  CA        11.3860    7.1290  -31.4260 C.3   137  GLY137      0.1811
     97  C         11.4920    5.6780  -30.9860 C.2   137  GLY137      0.2280
     98  O         11.1590    4.7400  -31.7190 O.2   137  GLY137     -0.2866
     99  N         12.0490    3.7310  -24.3360 N.3   140  ALA140     -0.1231
    100  CA        13.2650    3.6260  -23.5360 C.3   140  ALA140      0.1694
    101  C         12.9640    3.5480  -22.0400 C.2   140  ALA140      0.2591
    102  O         13.8850    3.5530  -21.2230 O.2   140  ALA140     -0.2718
    103  CB        14.1310    4.8320  -23.8180 C.3   140  ALA140      0.0304
    104  N         11.6850    3.4750  -21.6560 N.am  141  ARG141     -0.1980
    105  CA        11.3360    3.6790  -20.2700 C.3   141  ARG141      0.1597
    106  C         11.4320    2.3750  -19.5000 C.2   141  ARG141      0.2287
    107  O         10.4770    1.9130  -18.8750 O.2   141  ARG141     -0.2864
    108  CB         9.9530    4.3200  -20.1410 C.3   141  ARG141      0.0334
    109  CG         9.7120    4.8590  -18.7560 C.3   141  ARG141      0.0492
    110  CD         8.4730    5.6590  -18.6410 C.3   141  ARG141      0.2205
    111  NE         7.2730    4.8460  -18.7830 N.pl3 141  ARG141     -0.0865
    112  CZ         6.5910    4.2770  -17.7930 C.cat 141  ARG141      0.5346
    113  NH1        6.9630    4.3800  -16.5270 N.pl3 141  ARG141      0.1354
    114  NH2        5.5010    3.5860  -18.0880 N.pl3 141  ARG141      0.1354
    115  N          6.4440    5.2010  -28.2470 N.3   162  VAL162     -0.1231
    116  CA         7.7750    5.7690  -28.1310 C.3   162  VAL162      0.1692
    117  C          7.8390    6.9250  -27.1430 C.2   162  VAL162      0.2592
    118  O          6.8400    7.5960  -26.8630 O.2   162  VAL162     -0.2718
    119  CB         8.3200    6.1990  -29.4820 C.3   162  VAL162      0.0266
    120  CG1        8.2190    5.0240  -30.5280 C.3   162  VAL162      0.0020
    121  CG2        7.6760    7.5130  -30.0280 C.3   162  VAL162      0.0020
    122  N          9.0280    7.1430  -26.5930 N.am  163  ASN163     -0.1960
    123  CA         9.2030    8.1840  -25.6110 C.3   163  ASN163      0.1819
    124  C         10.6090    8.7640  -25.5970 C.2   163  ASN163      0.2621
    125  O         10.8850    9.6680  -24.8030 O.2   163  ASN163     -0.2715
    126  CB         8.7890    7.6500  -24.2300 C.3   163  ASN163      0.1195
    127  CG         9.4370    6.3100  -23.9110 C.2   163  ASN163      0.2630
    128  OD1       10.6670    6.1750  -23.9880 O.2   163  ASN163     -0.2716
    129  ND2        8.6190    5.2990  -23.5800 N.am  163  ASN163     -0.0877
    130  N         11.4750    8.2970  -26.5040 N.am  164  HIS164     -0.1959
    131  CA        12.8740    8.7150  -26.5330 C.3   164  HIS164      0.1787
    132  C         13.3990    8.7720  -27.9700 C.2   164  HIS164      0.2620
    133  O         13.2910    7.8260  -28.7090 O.2   164  HIS164     -0.2715
    134  CB        13.6660    7.7760  -25.6380 C.3   164  HIS164      0.0785
    135  CG        15.1190    8.0690  -25.5700 C.ar  164  HIS164      0.0821
    136  ND1       15.6230    9.2310  -25.0370 N.ar  164  HIS164     -0.2267
    137  CD2       16.1890    7.3160  -25.9270 C.ar  164  HIS164      0.1154
    138  CE1       16.9430    9.1960  -25.0890 C.ar  164  HIS164      0.1986
    139  NE2       17.3130    8.0460  -25.6300 N.ar  164  HIS164     -0.2212
    140  N         13.8960    9.9420  -28.3770 N.am  165  GLY165     -0.1954
    141  CA        14.3210   10.1470  -29.7380 C.3   165  GLY165      0.1869
    142  C         15.7800    9.7620  -29.9020 C.2   165  GLY165      0.2309
    143  O         16.6270   10.1790  -29.1260 O.2   165  GLY165     -0.2863
    144  N         23.4040   10.0570  -24.6250 N.3   186  TRP186     -0.1241
    145  CA        23.7130    9.9880  -23.1950 C.3   186  TRP186      0.1605
    146  C         25.2070    9.8000  -22.9330 C.2   186  TRP186      0.2264
    147  O         25.6200    9.2660  -21.8840 O.2   186  TRP186     -0.2867
    148  CB        22.9270    8.8580  -22.5200 C.3   186  TRP186      0.0550
    149  CG        21.4250    9.0460  -22.5500 C.ar  186  TRP186      0.0003
    150  CD1       20.7480   10.1670  -22.8910 C.ar  186  TRP186      0.0946
    151  CD2       20.4370    8.0900  -22.1430 C.ar  186  TRP186      0.0152
    152  NE1       19.4050    9.9720  -22.7490 N.ar  186  TRP186     -0.2442
    153  CE2       19.1810    8.7020  -22.3020 C.ar  186  TRP186      0.0810
    154  CE3       20.4950    6.7690  -21.6800 C.ar  186  TRP186      0.0012
    155  CZ2       17.9870    8.0450  -22.0280 C.ar  186  TRP186      0.0191
    156  CZ3       19.3100    6.1160  -21.4120 C.ar  186  TRP186      0.0001
    157  CH2       18.0730    6.7610  -21.5680 C.ar  186  TRP186      0.0015
    158  N          7.7180    5.4630  -35.7080 N.3   211  PHE211     -0.1241
    159  CA         7.6740    6.8380  -36.2220 C.3   211  PHE211      0.1605
    160  C          9.0140    7.3070  -36.7560 C.2   211  PHE211      0.2264
    161  O          9.6120    8.2350  -36.2090 O.2   211  PHE211     -0.2867
    162  CB         7.1450    7.7810  -35.1430 C.3   211  PHE211      0.0534
    163  CG         5.7800    7.4310  -34.6810 C.ar  211  PHE211     -0.0203
    164  CD1        4.6760    7.6760  -35.5050 C.ar  211  PHE211     -0.0042
    165  CD2        5.5860    6.7820  -33.4630 C.ar  211  PHE211     -0.0042
    166  CE1        3.4100    7.3120  -35.1030 C.ar  211  PHE211     -0.0003
    167  CE2        4.3130    6.4260  -33.0530 C.ar  211  PHE211     -0.0003
    168  CZ         3.2360    6.6810  -33.8830 C.ar  211  PHE211     -0.0000
@<TRIPOS>BOND
     1    91    90    2
     2    94    92    1
     3    92    89    1
     4    92    93    1
     5    89    90    1
     6    89    88    1
     7   160   159    1
     8   160   161    2
     9    83    82    2
    10   159   158    1
    11   159   162    1
    12    88    82   am
    13    82    81    1
    14   164   166   ar
    15   164   163   ar
    16   162   163    1
    17   166   168   ar
    18    84    81    1
    19    84    85    1
    20   163   165   ar
    21    81    80    1
    22   168   167   ar
    23    85    86    1
    24    80    71   am
    25   165   167   ar
    26    87    86    1
    27    72    71    2
    28    71    70    1
    29    95    96    1
    30    73    70    1
    31    73    74    1
    32    23    22    2
    33    70    69    1
    34    98    97    2
    35    74    75   ar
    36    74    76   ar
    37    75    77   ar
    38    96    97    1
    39    34    35    1
    40    76    78   ar
    41    77    79   ar
    42    22    21    1
    43    69    67   am
    44   120   119    1
    45    32    30   ar
    46    32    33   ar
    47    30    27   ar
    48   121   119    1
    49    78    79   ar
    50    35    36    1
    51   142   141    1
    52   142   143    2
    53    21    24    1
    54    21    20    1
    55   141   140    1
    56    24    25    1
    57    17    16    2
    58   119   116    1
    59    67    68    2
    60    67    66    1
    61    33    31   ar
    62    27    25   ar
    63    27    29   ar
    64    36    37    2
    65   133   132    2
    66    25    26   ar
    67    20    16   am
    68    16    15    1
    69   140   132   am
    70    66    65    1
    71   115   116    1
    72   116   117    1
    73    31    29   ar
    74    29    28   ar
    75   132   131    1
    76    26    28   ar
    77   117   118    2
    78   117   122   am
    79    15    18    1
    80    15    14    1
    81    65    63   am
    82   122   123    1
    83   131   130    1
    84   131   134    1
    85    18    19    1
    86   130   124   am
    87    38    39    1
    88    64    63    2
    89    63    62    1
    90   137   139   ar
    91   137   135   ar
    92   134   135    1
    93   139   138   ar
    94   123   124    1
    95   123   126    1
    96   124   125    2
    97   135   136   ar
    98   138   136   ar
    99    39    40    1
   100    39    42    1
   101     8     7    2
   102    62    61    1
   103   144   145    1
   104    99   100    1
   105    40    41    2
   106    13    12    2
   107    43    42    1
   108    43    44    1
   109   126   127    1
   110    45    46    1
   111    45    44    1
   112   128   127    2
   113   127   129   am
   114   103   100    1
   115     7     9   am
   116     7     6    1
   117     5     2    1
   118     5     6    1
   119    12    11    1
   120    61    55   am
   121   100   101    1
   122     1     2    1
   123   145   146    1
   124   145   148    1
   125     2     3    1
   126   146   147    2
   127   150   152   ar
   128   150   149   ar
   129    47    48    1
   130   152   153   ar
   131   149   148    1
   132   149   151   ar
   133    55    56    2
   134    55    54    1
   135   153   151   ar
   136   153   155   ar
   137    11    10    1
   138   151   154   ar
   139   101   104   am
   140   101   102    2
   141   155   157   ar
   142    48    49    1
   143    48    51    1
   144   154   156   ar
   145     3     4    2
   146    53    49   am
   147    53    54    1
   148   104   105    1
   149   157   156   ar
   150    49    50    2
   151    54    57    1
   152    52    51    1
   153    57    58    1
   154   105   108    1
   155   105   106    1
   156   108   109    1
   157   106   107    2
   158    58    60   am
   159    58    59    2
   160   111   110    1
   161   111   112    2
   162   109   110    1
   163   114   112    1
   164   112   113    1
