@<TRIPOS>MOLECULE
tmp/2hh9A01.pdb
 89 86 0 0 0
SMALL
GASTEIGER

@<TRIPOS>ATOM
      1  N         29.7330   46.8690   33.1700 N.3    86  ASP86      -0.1239
      2  CA        29.9240   45.4280   33.0950 C.3    86  ASP86       0.1674
      3  C         31.4140   45.1020   33.0460 C.2    86  ASP86       0.2266
      4  O         31.8090   43.9410   33.1400 O.2    86  ASP86      -0.2867
      5  CB        29.2130   44.8460   31.8660 C.3    86  ASP86       0.1410
      6  CG        29.5670   45.5720   30.5840 C.2    86  ASP86       0.3668
      7  OD1       30.5880   46.2850   30.5660 O.co2  86  ASP86      -0.2456
      8  OD2       28.8280   45.4220   29.5890 O.co2  86  ASP86      -0.2456
      9  N         33.6950   45.1860   30.5710 N.3    88  ASP88      -0.1239
     10  CA        34.1690   44.3710   29.4600 C.3    88  ASP88       0.1674
     11  C         35.1620   45.1720   28.6230 C.2    88  ASP88       0.2266
     12  O         35.6430   44.7000   27.5940 O.2    88  ASP88      -0.2867
     13  CB        32.9910   43.9310   28.5900 C.3    88  ASP88       0.1410
     14  CG        32.2320   45.1040   28.0000 C.2    88  ASP88       0.3668
     15  OD1       32.4750   46.2450   28.4350 O.co2  88  ASP88      -0.2456
     16  OD2       31.3880   44.8880   27.1070 O.co2  88  ASP88      -0.2456
     17  N         24.2520   43.3780   33.8660 N.3   110  SER110     -0.1202
     18  CA        23.0540   43.4410   33.0400 C.3   110  SER110      0.2020
     19  C         23.3190   43.7830   31.5800 C.2   110  SER110      0.2619
     20  O         23.9860   44.7680   31.2620 O.2   110  SER110     -0.2717
     21  CB        22.0580   44.4540   33.5940 C.3   110  SER110      0.2103
     22  OG        20.9340   44.5280   32.7330 O.3   110  SER110     -0.2182
     23  N         22.7690   42.9610   30.6970 N.am  111  GLN111     -0.1965
     24  CA        22.9100   43.1700   29.2700 C.3   111  GLN111      0.1733
     25  C         21.6660   43.8710   28.7540 C.2   111  GLN111      0.2616
     26  O         21.3270   43.7450   27.5880 O.2   111  GLN111     -0.2715
     27  CB        23.0830   41.8300   28.5540 C.3   111  GLN111      0.0408
     28  CG        24.3740   41.1290   28.9240 C.3   111  GLN111      0.0908
     29  CD        25.5790   42.0240   28.7200 C.2   111  GLN111      0.2608
     30  OE1       25.8630   42.4560   27.6010 O.2   111  GLN111     -0.2717
     31  NE2       26.2910   42.3150   29.8030 N.am  111  GLN111     -0.0878
     32  N         20.9860   44.6010   29.6320 N.am  112  TYR112     -0.1960
     33  CA        19.7710   45.3160   29.2600 C.3   112  TYR112      0.1771
     34  C         19.8540   46.8200   29.5430 C.2   112  TYR112      0.2620
     35  O         18.9090   47.5660   29.2880 O.2   112  TYR112     -0.2715
     36  CB        18.5660   44.6700   29.9620 C.3   112  TYR112      0.0574
     37  CG        18.2060   43.3260   29.3520 C.ar  112  TYR112     -0.0198
     38  CD1       17.2780   43.2380   28.3170 C.ar  112  TYR112     -0.0009
     39  CD2       18.8760   42.1600   29.7340 C.ar  112  TYR112     -0.0009
     40  CE1       17.0300   42.0260   27.6650 C.ar  112  TYR112      0.0417
     41  CE2       18.6360   40.9420   29.0890 C.ar  112  TYR112      0.0417
     42  CZ        17.7150   40.8850   28.0530 C.ar  112  TYR112      0.1957
     43  OH        17.4930   39.6980   27.3850 O.3   112  TYR112     -0.2866
     44  N         21.0010   47.2510   30.0610 N.am  113  TYR113     -0.1960
     45  CA        21.2800   48.6580   30.3570 C.3   113  TYR113      0.1771
     46  C         22.7350   48.8580   29.9310 C.2   113  TYR113      0.2620
     47  O         23.5390   47.9470   30.0990 O.2   113  TYR113     -0.2715
     48  CB        21.1810   48.9390   31.8600 C.3   113  TYR113      0.0574
     49  CG        19.8160   48.7520   32.4800 C.ar  113  TYR113     -0.0198
     50  CD1       18.8760   49.7820   32.4760 C.ar  113  TYR113     -0.0009
     51  CD2       19.4730   47.5480   33.0930 C.ar  113  TYR113     -0.0009
     52  CE1       17.6250   49.6160   33.0780 C.ar  113  TYR113      0.0417
     53  CE2       18.2310   47.3710   33.6910 C.ar  113  TYR113      0.0417
     54  CZ        17.3130   48.4060   33.6840 C.ar  113  TYR113      0.1957
     55  OH        16.0960   48.2310   34.3050 O.3   113  TYR113     -0.2866
     56  N         23.0860   50.0220   29.3850 N.am  114  ASN114     -0.1958
     57  CA        24.4750   50.2430   28.9890 C.3   114  ASN114      0.1819
     58  C         25.2660   50.9220   30.1030 C.2   114  ASN114      0.2621
     59  O         24.7040   51.2960   31.1340 O.2   114  ASN114     -0.2715
     60  CB        24.5820   51.0570   27.6810 C.3   114  ASN114      0.1195
     61  CG        23.9250   52.4230   27.7670 C.2   114  ASN114      0.2630
     62  OD1       23.7400   52.9780   28.8490 O.2   114  ASN114     -0.2716
     63  ND2       23.5900   52.9850   26.6070 N.am  114  ASN114     -0.0877
     64  N         26.5710   51.0740   29.8970 N.am  115  ASP115     -0.1971
     65  CA        27.4260   51.6830   30.9070 C.3   115  ASP115      0.1709
     66  C         27.0030   53.1000   31.2630 C.2   115  ASP115      0.2293
     67  O         27.1980   53.5410   32.3950 O.2   115  ASP115     -0.2864
     68  CB        28.8860   51.6800   30.4490 C.3   115  ASP115      0.1436
     69  CG        29.4240   50.2830   30.2300 C.2   115  ASP115      0.3671
     70  OD1       29.1030   49.3820   31.0340 O.co2 115  ASP115     -0.2456
     71  OD2       30.1760   50.0910   29.2560 O.co2 115  ASP115     -0.2456
     72  N         23.7760   52.9020   33.5050 N.3   118  LYS118     -0.1245
     73  CA        24.1740   52.3520   34.7950 C.3   118  LYS118      0.1561
     74  C         24.8910   53.4300   35.5930 C.2   118  LYS118      0.2260
     75  O         24.6600   53.5800   36.7860 O.2   118  LYS118     -0.2867
     76  CB        25.0900   51.1440   34.6020 C.3   118  LYS118      0.0271
     77  CG        24.3680   49.9200   34.0570 C.3   118  LYS118      0.0035
     78  CD        25.3550   48.8720   33.5800 C.3   118  LYS118      0.0206
     79  CE        24.6420   47.6380   33.0570 C.3   118  LYS118      0.1093
     80  NZ        25.6080   46.6900   32.4360 N.3   118  LYS118     -0.1314
     81  N         21.5060   56.3370   21.7220 N.3   182  GLN182     -0.1245
     82  CA        21.0020   55.9320   23.0320 C.3   182  GLN182      0.1566
     83  C         21.2340   57.0640   24.0320 C.2   182  GLN182      0.2260
     84  O         20.3880   57.3260   24.8940 O.2   182  GLN182     -0.2867
     85  CB        21.6990   54.6570   23.5130 C.3   182  GLN182      0.0367
     86  CG        21.0650   54.0340   24.7570 C.3   182  GLN182      0.0905
     87  CD        19.5980   53.7050   24.5570 C.2   182  GLN182      0.2608
     88  OE1       18.7210   54.4830   24.9310 O.2   182  GLN182     -0.2717
     89  NE2       19.3240   52.5520   23.9460 N.am  182  GLN182     -0.0878
@<TRIPOS>BOND
     1    81    82    1
     2    82    85    1
     3    82    83    1
     4    85    86    1
     5    89    87   am
     6    83    84    2
     7    87    86    1
     8    87    88    2
     9    63    61   am
    10    16    14   ar
    11    43    42    1
    12    26    25    2
    13    12    11    2
    14    30    29    2
    15    40    42   ar
    16    40    38   ar
    17    60    61    1
    18    60    57    1
    19    61    62    2
    20    14    15   ar
    21    14    13    1
    22    42    41   ar
    23    38    37   ar
    24    27    28    1
    25    27    24    1
    26    13    10    1
    27    11    10    1
    28    29    28    1
    29    29    31   am
    30    25    24    1
    31    25    32   am
    32    57    56    1
    33    57    58    1
    34    41    39   ar
    35    71    69   ar
    36    33    34    1
    37    33    32    1
    38    33    36    1
    39    24    23    1
    40    35    34    2
    41    37    39   ar
    42    37    36    1
    43    56    46   am
    44    10     9    1
    45    34    44   am
    46     8     6   ar
    47    64    58   am
    48    64    65    1
    49    46    47    2
    50    46    45    1
    51    44    45    1
    52    58    59    2
    53    69    68    1
    54    69    70   ar
    55    45    48    1
    56    68    65    1
    57     7     6   ar
    58     6     5    1
    59    23    19   am
    60    65    66    1
    61    20    19    2
    62    66    67    2
    63    19    18    1
    64    48    49    1
    65     5     2    1
    66    80    79    1
    67    50    49   ar
    68    50    52   ar
    69    49    51   ar
    70    22    21    1
    71    18    21    1
    72    18    17    1
    73     3     2    1
    74     3     4    2
    75    79    78    1
    76    52    54   ar
    77    51    53   ar
    78     2     1    1
    79    72    73    1
    80    78    77    1
    81    54    53   ar
    82    54    55    1
    83    77    76    1
    84    76    73    1
    85    73    74    1
    86    74    75    2
