@<TRIPOS>MOLECULE
tmp/2hh9A00.pdb
 85 83 0 0 0
SMALL
GASTEIGER

@<TRIPOS>ATOM
      1  N         12.0090   82.8360    8.3770 N.3     7  VAL7       -0.1245
      2  CA        13.4260   82.6460    8.6250 C.3     7  VAL7        0.1561
      3  C         14.0390   84.0110    8.3620 C.2     7  VAL7        0.2260
      4  O         14.1260   84.4550    7.2180 O.2     7  VAL7       -0.2867
      5  CB        14.0590   81.6180    7.6810 C.3     7  VAL7        0.0252
      6  CG1       15.5550   81.5190    7.9790 C.3     7  VAL7        0.0019
      7  CG2       13.3950   80.2610    7.8660 C.3     7  VAL7        0.0019
      8  N         20.0910   82.7720   11.5700 N.3   255  TYR255     -0.1241
      9  CA        18.8820   82.4910   10.8160 C.3   255  TYR255      0.1605
     10  C         17.7900   82.2760   11.8570 C.2   255  TYR255      0.2264
     11  O         17.5130   81.1490   12.2640 O.2   255  TYR255     -0.2867
     12  CB        19.0950   81.2470    9.9440 C.3   255  TYR255      0.0534
     13  CG        20.2310   81.4290    8.9550 C.ar  255  TYR255     -0.0201
     14  CD1       20.0100   82.0120    7.7060 C.ar  255  TYR255     -0.0009
     15  CD2       21.5390   81.1080    9.3080 C.ar  255  TYR255     -0.0009
     16  CE1       21.0690   82.2800    6.8350 C.ar  255  TYR255      0.0417
     17  CE2       22.6060   81.3710    8.4480 C.ar  255  TYR255      0.0417
     18  CZ        22.3660   81.9600    7.2170 C.ar  255  TYR255      0.1957
     19  OH        23.4250   82.2510    6.3830 O.3   255  TYR255     -0.2866
     20  N         14.2050   81.8860   13.6090 N.3   257  MET257     -0.1245
     21  CA        12.9530   81.2480   13.2190 C.3   257  MET257      0.1570
     22  C         11.7220   81.7810   13.9490 C.2   257  MET257      0.2261
     23  O         11.7850   82.1450   15.1220 O.2   257  MET257     -0.2867
     24  CB        13.0630   79.7400   13.4490 C.3   257  MET257      0.0387
     25  CG        14.1800   79.0780   12.6520 C.3   257  MET257      0.0595
     26  SD        14.8040   77.5480   13.4200 S.3   257  MET257     -0.1393
     27  CE        15.9360   78.2390   14.6050 C.3   257  MET257      0.0692
     28  N          8.2620   78.3150   13.0730 N.3   260  TRP260     -0.1241
     29  CA         8.9070   77.3910   12.1460 C.3   260  TRP260      0.1605
     30  C          8.7790   75.9480   12.6360 C.2   260  TRP260      0.2264
     31  O          9.2810   75.6010   13.7090 O.2   260  TRP260     -0.2867
     32  CB        10.3760   77.7910   12.0320 C.3   260  TRP260      0.0550
     33  CG        11.1070   77.3190   10.8100 C.ar  260  TRP260      0.0003
     34  CD1       11.0640   77.8720    9.5600 C.ar  260  TRP260      0.0946
     35  CD2       12.0960   76.2850   10.7580 C.ar  260  TRP260      0.0152
     36  NE1       11.9750   77.2570    8.7380 N.ar  260  TRP260     -0.2442
     37  CE2       12.6220   76.2770    9.4470 C.ar  260  TRP260      0.0810
     38  CE3       12.5900   75.3640   11.6940 C.ar  260  TRP260      0.0012
     39  CZ2       13.6270   75.3890    9.0480 C.ar  260  TRP260      0.0191
     40  CZ3       13.5920   74.4760   11.2980 C.ar  260  TRP260      0.0001
     41  CH2       14.0970   74.4980    9.9830 C.ar  260  TRP260      0.0015
     42  N         15.0410   70.8640    9.1320 N.3   268  VAL268     -0.1231
     43  CA        15.8070   70.8540   10.3670 C.3   268  VAL268      0.1692
     44  C         16.8700   71.9310   10.2840 C.2   268  VAL268      0.2593
     45  O         17.6180   72.0040    9.3100 O.2   268  VAL268     -0.2718
     46  CB        16.5000   69.4890   10.5970 C.3   268  VAL268      0.0266
     47  CG1       17.5150   69.6060   11.7380 C.3   268  VAL268      0.0020
     48  CG2       15.4560   68.4220   10.9230 C.3   268  VAL268      0.0020
     49  N         16.9370   72.7610   11.3160 N.am  269  SER269     -0.1938
     50  CA        17.9090   73.8400   11.3510 C.3   269  SER269      0.2055
     51  C         19.3090   73.3560   11.7190 C.2   269  SER269      0.2644
     52  O         19.5830   73.0120   12.8660 O.2   269  SER269     -0.2714
     53  CB        17.4580   74.9210   12.3420 C.3   269  SER269      0.2130
     54  OG        18.3900   75.9890   12.3900 O.3   269  SER269     -0.2179
     55  N         20.1930   73.3150   10.7310 N.am  270  SER270     -0.1935
     56  CA        21.5710   72.9110   10.9710 C.3   270  SER270      0.2055
     57  C         22.4190   73.9910   10.3300 C.2   270  SER270      0.2644
     58  O         21.9340   74.7350    9.4740 O.2   270  SER270     -0.2714
     59  CB        21.8630   71.5340   10.3590 C.3   270  SER270      0.2130
     60  OG        21.6330   71.5240    8.9660 O.3   270  SER270     -0.2179
     61  N         23.6770   74.0800   10.7400 N.am  271  SER271     -0.1935
     62  CA        24.5790   75.1030   10.2360 C.3   271  SER271      0.2055
     63  C         24.0310   76.5030   10.5200 C.2   271  SER271      0.2643
     64  O         24.2660   77.4430    9.7650 O.2   271  SER271     -0.2714
     65  CB        24.8250   74.9330    8.7350 C.3   271  SER271      0.2130
     66  OG        25.6970   73.8440    8.4820 O.3   271  SER271     -0.2179
     67  N         23.2720   76.6350   11.6010 N.am  272  ASN272     -0.1957
     68  CA        22.7660   77.9410   11.9800 C.3   272  ASN272      0.1819
     69  C         23.9620   78.5480   12.7230 C.2   272  ASN272      0.2621
     70  O         24.9470   77.8510   12.9740 O.2   272  ASN272     -0.2715
     71  CB        21.5640   77.8130   12.9230 C.3   272  ASN272      0.1195
     72  CG        20.6350   79.0200   12.8550 C.2   272  ASN272      0.2630
     73  OD1       21.0770   80.1460   12.6290 O.2   272  ASN272     -0.2716
     74  ND2       19.3410   78.7880   13.0700 N.am  272  ASN272     -0.0877
     75  N         23.8980   79.8350   13.0490 N.am  273  ARG273     -0.1977
     76  CA        24.9880   80.4800   13.7750 C.3   273  ARG273      0.1597
     77  C         24.4270   81.3750   14.8800 C.2   273  ARG273      0.2287
     78  O         23.2580   81.7550   14.8410 O.2   273  ARG273     -0.2864
     79  CB        25.8720   81.2900   12.8130 C.3   273  ARG273      0.0334
     80  CG        26.4830   80.4450   11.6840 C.3   273  ARG273      0.0492
     81  CD        27.6190   81.1740   10.9560 C.3   273  ARG273      0.2205
     82  NE        27.1780   82.3240   10.1650 N.pl3 273  ARG273     -0.0865
     83  CZ        26.6950   82.2540    8.9260 C.cat 273  ARG273      0.5346
     84  NH1       26.5800   81.0840    8.3120 N.pl3 273  ARG273      0.1354
     85  NH2       26.3430   83.3610    8.2880 N.pl3 273  ARG273      0.1354
@<TRIPOS>BOND
     1    19    18    1
     2    16    18   ar
     3    16    14   ar
     4    18    17   ar
     5     4     3    2
     6     5     7    1
     7     5     6    1
     8     5     2    1
     9    14    13   ar
    10    85    83    1
    11    84    83    1
    12     3     2    1
    13     1     2    1
    14    17    15   ar
    15    66    65    1
    16    65    62    1
    17    36    37   ar
    18    36    34   ar
    19    83    82    2
    20    13    15   ar
    21    13    12    1
    22    60    59    1
    23    39    37   ar
    24    39    41   ar
    25    42    43    1
    26    45    44    2
    27    37    35   ar
    28    58    57    2
    29    34    33   ar
    30    64    63    2
    31    12     9    1
    32    41    40   ar
    33    82    81    1
    34    62    63    1
    35    62    61    1
    36    44    43    1
    37    44    49   am
    38    57    61   am
    39    57    56    1
    40    59    56    1
    41    43    46    1
    42    63    67   am
    43    46    48    1
    44    46    47    1
    45    55    56    1
    46    55    51   am
    47    35    33   ar
    48    35    38   ar
    49    33    32    1
    50     9     8    1
    51     9    10    1
    52    81    80    1
    53    40    38   ar
    54    49    50    1
    55    50    51    1
    56    50    53    1
    57    67    68    1
    58    80    79    1
    59    51    52    2
    60    10    11    2
    61    68    69    1
    62    68    71    1
    63    32    29    1
    64    29    30    1
    65    29    28    1
    66    53    54    1
    67    73    72    2
    68    30    31    2
    69    25    26    1
    70    25    24    1
    71    69    70    2
    72    69    75   am
    73    79    76    1
    74    72    71    1
    75    72    74   am
    76    75    76    1
    77    21    24    1
    78    21    20    1
    79    21    22    1
    80    26    27    1
    81    76    77    1
    82    22    23    2
    83    78    77    2
