@<TRIPOS>MOLECULE
tmp/2hhaB07.pdb
 194 189 0 0 0
SMALL
GASTEIGER

@<TRIPOS>ATOM
      1  N         -1.1130   58.1200   27.0020 N.3    87  ARG87      -0.1245
      2  CA        -2.3270   57.5450   27.5570 C.3    87  ARG87       0.1563
      3  C         -3.3480   57.0910   26.5190 C.2    87  ARG87       0.2260
      4  O         -3.9530   56.0210   26.6660 O.2    87  ARG87      -0.2867
      5  CB        -2.9930   58.5140   28.5340 C.3    87  ARG87       0.0307
      6  CG        -4.0830   57.8390   29.3660 C.3    87  ARG87       0.0489
      7  CD        -4.8700   58.8400   30.2030 C.3    87  ARG87       0.2205
      8  NE        -4.0120   59.5350   31.1550 N.pl3  87  ARG87      -0.0865
      9  CZ        -3.7830   59.1350   32.4030 C.cat  87  ARG87       0.5346
     10  NH1       -4.3510   58.0240   32.8750 N.pl3  87  ARG87       0.1354
     11  NH2       -2.9940   59.8600   33.1840 N.pl3  87  ARG87       0.1354
     12  N         -3.1370   64.6080   26.9360 N.3   167  GLU167     -0.1231
     13  CA        -3.3320   64.2840   28.3360 C.3   167  GLU167      0.1699
     14  C         -4.3000   65.1740   29.1190 C.2   167  GLU167      0.2592
     15  O         -5.2170   64.6780   29.7460 O.2   167  GLU167     -0.2718
     16  CB        -1.9670   64.2730   29.0350 C.3   167  GLU167      0.0402
     17  CG        -1.9970   64.0880   30.5310 C.3   167  GLU167      0.1161
     18  CD        -2.5700   62.7410   30.9330 C.2   167  GLU167      0.3649
     19  OE1       -2.7600   61.8810   30.0380 O.co2 167  GLU167     -0.2457
     20  OE2       -2.8200   62.5490   32.1490 O.co2 167  GLU167     -0.2457
     21  N         -4.1130   66.4870   29.0470 N.am  168  GLU168     -0.1979
     22  CA        -4.8970   67.4450   29.8280 C.3   168  GLU168      0.1602
     23  C         -6.0760   68.2160   29.2170 C.2   168  GLU168      0.2287
     24  O         -6.8210   68.8640   29.9380 O.2   168  GLU168     -0.2864
     25  CB        -3.9220   68.4670   30.4010 C.3   168  GLU168      0.0415
     26  CG        -2.6360   67.8420   30.9310 C.3   168  GLU168      0.1163
     27  CD        -2.8250   67.1340   32.2610 C.2   168  GLU168      0.3649
     28  OE1       -3.9770   66.8000   32.5990 O.co2 168  GLU168     -0.2457
     29  OE2       -1.8160   66.8980   32.9620 O.co2 168  GLU168     -0.2457
     30  N         -8.1840   64.5500   26.2890 N.3   171  SER171     -0.1217
     31  CA        -8.2190   63.1540   26.7380 C.3   171  SER171      0.1889
     32  C         -8.2870   62.2370   25.5260 C.2   171  SER171      0.2288
     33  O         -8.9440   61.1880   25.5500 O.2   171  SER171     -0.2866
     34  CB        -9.4310   62.8840   27.6240 C.3   171  SER171      0.2089
     35  OG        -9.2920   63.4980   28.8900 O.3   171  SER171     -0.2183
     36  N        -12.7360   69.6000   34.9470 N.3   319  PHE319     -0.1241
     37  CA       -11.3680   69.5000   34.4440 C.3   319  PHE319      0.1605
     38  C        -11.2350   70.3700   33.2060 C.2   319  PHE319      0.2264
     39  O        -10.1250   70.5670   32.6960 O.2   319  PHE319     -0.2867
     40  CB       -11.0210   68.0510   34.0900 C.3   319  PHE319      0.0534
     41  CG       -10.8300   67.1650   35.2950 C.ar  319  PHE319     -0.0203
     42  CD1       -9.6300   67.1880   36.0090 C.ar  319  PHE319     -0.0042
     43  CD2      -11.8660   66.3440   35.7470 C.ar  319  PHE319     -0.0042
     44  CE1       -9.4610   66.4120   37.1560 C.ar  319  PHE319     -0.0003
     45  CE2      -11.7050   65.5580   36.9060 C.ar  319  PHE319     -0.0003
     46  CZ       -10.5010   65.5940   37.6100 C.ar  319  PHE319     -0.0000
     47  N         -5.6310   59.5770   47.0060 N.3   509  TYR509     -0.1241
     48  CA        -5.3690   60.1890   45.7160 C.3   509  TYR509      0.1605
     49  C         -5.5250   61.6590   46.0800 C.2   509  TYR509      0.2264
     50  O         -4.5410   62.3770   46.1830 O.2   509  TYR509     -0.2867
     51  CB        -6.3620   59.7520   44.6370 C.3   509  TYR509      0.0534
     52  CG        -6.0090   60.4000   43.3260 C.ar  509  TYR509     -0.0201
     53  CD1       -6.6080   61.5900   42.9420 C.ar  509  TYR509     -0.0009
     54  CD2       -4.9620   59.9100   42.5490 C.ar  509  TYR509     -0.0009
     55  CE1       -6.1680   62.2840   41.8300 C.ar  509  TYR509      0.0417
     56  CE2       -4.5050   60.5930   41.4280 C.ar  509  TYR509      0.0417
     57  CZ        -5.1170   61.7820   41.0750 C.ar  509  TYR509      0.1957
     58  OH        -4.7190   62.4700   39.9550 O.3   509  TYR509     -0.2866
     59  N         -7.6410   67.4970   42.8600 N.3   512  PRO512     -0.2102
     60  CA        -8.8950   68.2410   42.6610 C.3   512  PRO512      0.1504
     61  C         -9.9250   67.4720   41.8310 C.2   512  PRO512      0.2576
     62  O         -9.6020   66.8830   40.8010 O.2   512  PRO512     -0.2718
     63  CB        -8.4280   69.5330   42.0050 C.3   512  PRO512      0.0282
     64  CG        -7.2120   69.1110   41.2640 C.3   512  PRO512      0.0208
     65  CD        -6.5060   68.2000   42.2440 C.3   512  PRO512      0.0893
     66  N        -11.1660   67.4770   42.3140 N.am  513  CYS513     -0.1957
     67  CA       -12.2990   66.7720   41.7050 C.3   513  CYS513      0.1843
     68  C        -12.1610   65.2470   41.7560 C.2   513  CYS513      0.2626
     69  O        -12.7600   64.5280   40.9380 O.2   513  CYS513     -0.2714
     70  CB       -12.5330   67.2010   40.2560 C.3   513  CYS513      0.0997
     71  SG       -14.2860   66.9480   39.7340 S.3   513  CYS513     -0.0797
     72  N        -11.3690   64.7480   42.7020 N.am  514  SER514     -0.1936
     73  CA       -11.2160   63.3170   42.8400 C.3   514  SER514      0.2055
     74  C        -12.3480   62.7960   43.7360 C.2   514  SER514      0.2643
     75  O        -13.0230   63.5610   44.4350 O.2   514  SER514     -0.2714
     76  CB        -9.8620   62.9700   43.4860 C.3   514  SER514      0.2130
     77  OG        -9.8050   63.3020   44.8810 O.3   514  SER514     -0.2179
     78  N        -12.5540   61.4870   43.6890 N.am  515  GLN515     -0.1963
     79  CA       -13.5520   60.8160   44.4970 C.3   515  GLN515      0.1733
     80  C        -13.0280   59.4200   44.7620 C.2   515  GLN515      0.2616
     81  O        -13.0100   58.5820   43.8750 O.2   515  GLN515     -0.2715
     82  CB       -14.9110   60.7190   43.7700 C.3   515  GLN515      0.0408
     83  CG       -15.9960   60.0260   44.6160 C.3   515  GLN515      0.0908
     84  CD       -17.4260   60.2700   44.1200 C.2   515  GLN515      0.2608
     85  OE1      -17.8490   59.7290   43.0970 O.2   515  GLN515     -0.2717
     86  NE2      -18.1670   61.0890   44.8540 N.am  515  GLN515     -0.0878
     87  N        -12.5840   59.1780   45.9880 N.am  516  LYS516     -0.1977
     88  CA       -12.0770   57.8550   46.3360 C.3   516  LYS516      0.1596
     89  C        -13.0800   57.0990   47.2110 C.2   516  LYS516      0.2287
     90  O        -12.8370   55.9550   47.5940 O.2   516  LYS516     -0.2864
     91  CB       -10.7200   57.9770   47.0230 C.3   516  LYS516      0.0298
     92  CG        -9.6060   58.3880   46.0650 C.3   516  LYS516      0.0038
     93  CD        -9.0530   57.1730   45.2930 C.3   516  LYS516      0.0206
     94  CE        -8.2180   56.2850   46.2250 C.3   516  LYS516      0.1093
     95  NZ        -7.7910   54.9980   45.5820 N.3   516  LYS516     -0.1314
     96  N        -14.8710   46.6570   43.7250 N.3   522  ARG522     -0.1245
     97  CA       -13.5560   46.3730   43.1790 C.3   522  ARG522      0.1563
     98  C        -12.8540   45.1540   43.7790 C.2   522  ARG522      0.2260
     99  O        -13.0070   44.8370   44.9670 O.2   522  ARG522     -0.2867
    100  CB       -12.6460   47.5950   43.3380 C.3   522  ARG522      0.0307
    101  CG       -13.1520   48.8490   42.6430 C.3   522  ARG522      0.0489
    102  CD       -12.2070   50.0680   42.8450 C.3   522  ARG522      0.2205
    103  NE       -12.7610   51.2710   42.2250 N.pl3 522  ARG522     -0.0865
    104  CZ       -13.5590   52.1420   42.8350 C.cat 522  ARG522      0.5346
    105  NH1      -13.9040   51.9860   44.1130 N.pl3 522  ARG522      0.1354
    106  NH2      -14.0760   53.1420   42.1480 N.pl3 522  ARG522      0.1354
    107  N          0.6330   58.6350   41.9940 N.3   592  SER592     -0.1202
    108  CA         0.4270   59.8810   41.2730 C.3   592  SER592      0.2020
    109  C          0.1320   61.0290   42.2470 C.2   592  SER592      0.2618
    110  O          0.9680   61.3450   43.0850 O.2   592  SER592     -0.2717
    111  CB        -0.7330   59.6580   40.2890 C.3   592  SER592      0.2103
    112  OG        -0.8030   60.6720   39.3200 O.3   592  SER592     -0.2182
    113  N         -1.0310   61.6680   42.1400 N.am  593  TYR593     -0.1975
    114  CA        -1.3490   62.7530   43.0680 C.3   593  TYR593      0.1639
    115  C         -1.3470   62.1410   44.4640 C.2   593  TYR593      0.2290
    116  O         -0.9880   62.7990   45.4410 O.2   593  TYR593     -0.2864
    117  CB        -2.7240   63.3710   42.7640 C.3   593  TYR593      0.0560
    118  CG        -2.9030   64.7750   43.3290 C.ar  593  TYR593     -0.0198
    119  CD1       -3.1240   64.9880   44.7040 C.ar  593  TYR593     -0.0009
    120  CD2       -2.8190   65.8930   42.4970 C.ar  593  TYR593     -0.0009
    121  CE1       -3.2510   66.2750   45.2240 C.ar  593  TYR593      0.0417
    122  CE2       -2.9470   67.1840   43.0010 C.ar  593  TYR593      0.0417
    123  CZ        -3.1620   67.3770   44.3660 C.ar  593  TYR593      0.1957
    124  OH        -3.2740   68.6670   44.8630 O.3   593  TYR593     -0.2866
    125  N          4.2460   63.4260   42.4430 N.3   618  VAL618     -0.1245
    126  CA         4.6090   64.7620   41.9930 C.3   618  VAL618      0.1561
    127  C          5.3840   65.2500   43.2370 C.2   618  VAL618      0.2260
    128  O          5.0350   64.8680   44.3540 O.2   618  VAL618     -0.2867
    129  CB         3.3480   65.6350   41.7730 C.3   618  VAL618      0.0252
    130  CG1        3.6950   67.1350   41.7530 C.3   618  VAL618      0.0019
    131  CG2        2.7040   65.2450   40.4540 C.3   618  VAL618      0.0019
    132  N          5.3400   71.3650   42.0240 N.3   621  TRP621     -0.1241
    133  CA         4.4720   71.7490   40.9470 C.3   621  TRP621      0.1605
    134  C          5.1010   72.3570   39.7010 C.2   621  TRP621      0.2264
    135  O          4.5380   72.2360   38.6170 O.2   621  TRP621     -0.2867
    136  CB         3.3400   72.5900   41.5260 C.3   621  TRP621      0.0550
    137  CG         2.4120   71.6930   42.3270 C.ar  621  TRP621      0.0003
    138  CD1        2.2000   71.7060   43.6890 C.ar  621  TRP621      0.0946
    139  CD2        1.6610   70.5650   41.8190 C.ar  621  TRP621      0.0152
    140  NE1        1.3780   70.6520   44.0520 N.ar  621  TRP621     -0.2442
    141  CE2        1.0340   69.9410   42.9280 C.ar  621  TRP621      0.0810
    142  CE3        1.4720   70.0180   40.5340 C.ar  621  TRP621      0.0012
    143  CZ2        0.2280   68.8070   42.7890 C.ar  621  TRP621      0.0191
    144  CZ3        0.6690   68.8820   40.3960 C.ar  621  TRP621      0.0001
    145  CH2        0.0610   68.2900   41.5190 C.ar  621  TRP621      0.0015
    146  N          5.5010   69.7170   36.9510 N.3   624  TYR624     -0.1241
    147  CA         4.3640   69.1300   36.2390 C.3   624  TYR624      0.1605
    148  C          3.9300   69.9980   35.0370 C.2   624  TYR624      0.2264
    149  O          4.4480   71.1060   34.8510 O.2   624  TYR624     -0.2867
    150  CB         3.2050   68.8690   37.2050 C.3   624  TYR624      0.0534
    151  CG         2.2950   67.7970   36.6870 C.ar  624  TYR624     -0.0201
    152  CD1        2.7840   66.5310   36.4030 C.ar  624  TYR624     -0.0009
    153  CD2        0.9710   68.0850   36.3570 C.ar  624  TYR624     -0.0009
    154  CE1        1.9910   65.5840   35.7880 C.ar  624  TYR624      0.0417
    155  CE2        0.1660   67.1530   35.7450 C.ar  624  TYR624      0.0417
    156  CZ         0.6760   65.9110   35.4550 C.ar  624  TYR624      0.1957
    157  OH        -0.1130   65.0170   34.7740 O.3   624  TYR624     -0.2866
    158  N         -2.5440   71.3410   33.4700 N.3   628  TYR628     -0.1241
    159  CA        -3.0920   70.8070   34.6920 C.3   628  TYR628      0.1605
    160  C         -2.6860   71.6600   35.8920 C.2   628  TYR628      0.2264
    161  O         -3.5330   72.1150   36.6590 O.2   628  TYR628     -0.2867
    162  CB        -2.6370   69.3490   34.9080 C.3   628  TYR628      0.0534
    163  CG        -3.1050   68.7830   36.2380 C.ar  628  TYR628     -0.0201
    164  CD1       -2.3920   69.0250   37.4150 C.ar  628  TYR628     -0.0009
    165  CD2       -4.2760   68.0310   36.3230 C.ar  628  TYR628     -0.0009
    166  CE1       -2.8330   68.5200   38.6400 C.ar  628  TYR628      0.0417
    167  CE2       -4.7360   67.5210   37.5480 C.ar  628  TYR628      0.0417
    168  CZ        -4.0050   67.7640   38.6930 C.ar  628  TYR628      0.1957
    169  OH        -4.4060   67.2090   39.8800 O.3   628  TYR628     -0.2866
    170  N          4.7870   61.2790   32.0210 N.3   672  ASN672     -0.1225
    171  CA         3.7730   62.1340   32.6490 C.3   672  ASN672      0.1785
    172  C          4.3300   62.8470   33.9010 C.2   672  ASN672      0.2597
    173  O          4.5130   64.0640   33.8910 O.2   672  ASN672     -0.2718
    174  CB         2.5730   61.2490   32.9870 C.3   672  ASN672      0.1169
    175  CG         1.3970   62.0210   33.4930 C.2   672  ASN672      0.2627
    176  OD1        1.5040   63.2070   33.8120 O.2   672  ASN672     -0.2716
    177  ND2        0.2430   61.3450   33.5840 N.am  672  ASN672     -0.0877
    178  N          4.5510   62.0950   34.9820 N.am  673  VAL673     -0.1980
    179  CA         5.1590   62.6440   36.1910 C.3   673  VAL673      0.1595
    180  C          6.5920   62.1440   36.0220 C.2   673  VAL673      0.2287
    181  O          6.9090   60.9820   36.2830 O.2   673  VAL673     -0.2864
    182  CB         4.5280   62.0760   37.4810 C.3   673  VAL673      0.0276
    183  CG1        5.3170   62.5600   38.7110 C.3   673  VAL673      0.0022
    184  CG2        3.0610   62.5460   37.6030 C.3   673  VAL673      0.0022
    185  N          4.0680   56.0310   33.7970 N.3   702  HIS702     -0.1241
    186  CA         3.2400   56.4220   34.9280 C.3   702  HIS702      0.1621
    187  C          2.3040   55.3380   35.4370 C.2   702  HIS702      0.2264
    188  O          1.8890   55.3640   36.6050 O.2   702  HIS702     -0.2867
    189  CB         2.4190   57.6650   34.5920 C.3   702  HIS702      0.0745
    190  CG         1.8700   58.3580   35.8010 C.ar  702  HIS702      0.0817
    191  ND1        2.6560   58.6970   36.8810 N.ar  702  HIS702     -0.2268
    192  CD2        0.6250   58.8020   36.0910 C.ar  702  HIS702      0.1154
    193  CE1        1.9200   59.3240   37.7840 C.ar  702  HIS702      0.1986
    194  NE2        0.6840   59.4000   37.3280 N.ar  702  HIS702     -0.2212
@<TRIPOS>BOND
     1    32    33    2
     2    32    31    1
     3    30    31    1
     4     3     4    2
     5     3     2    1
     6    31    34    1
     7    12    13    1
     8     1     2    1
     9     2     5    1
    10    34    35    1
    11    13    16    1
    12    13    14    1
    13     5     6    1
    14    16    17    1
    15    21    14   am
    16    21    22    1
    17    14    15    2
    18    23    22    1
    19    23    24    2
    20     6     7    1
    21    22    25    1
    22    19    18   ar
    23     7     8    1
    24    25    26    1
    25    17    18    1
    26    26    27    1
    27    18    20   ar
    28     8     9    2
    29   170   171    1
    30    27    28   ar
    31    27    29   ar
    32     9    10    1
    33     9    11    1
    34   171   174    1
    35   171   172    1
    36    39    38    2
    37   174   175    1
    38    38    37    1
    39   158   159    1
    40   175   177   am
    41   175   176    2
    42   185   186    1
    43   173   172    2
    44   172   178   am
    45    40    37    1
    46    40    41    1
    47    37    36    1
    48   189   186    1
    49   189   190    1
    50   159   162    1
    51   159   160    1
    52   157   156    1
    53   149   148    2
    54   162   163    1
    55   186   187    1
    56   178   179    1
    57   148   147    1
    58    41    43   ar
    59    41    42   ar
    60   187   188    2
    61   156   155   ar
    62   156   154   ar
    63   155   153   ar
    64    43    45   ar
    65   154   152   ar
    66   190   192   ar
    67   190   191   ar
    68   160   161    2
    69    42    44   ar
    70   180   179    1
    71   180   181    2
    72   192   194   ar
    73   179   182    1
    74   163   165   ar
    75   163   164   ar
    76   147   146    1
    77   147   150    1
    78   165   167   ar
    79   153   151   ar
    80   152   151   ar
    81   151   150    1
    82   191   193   ar
    83    45    46   ar
    84    44    46   ar
    85   194   193   ar
    86   164   166   ar
    87   182   184    1
    88   182   183    1
    89   167   168   ar
    90   135   134    2
    91   166   168   ar
    92   168   169    1
    93   112   111    1
    94   134   133    1
    95    71    70    1
    96    58    57    1
    97    70    67    1
    98   111   108    1
    99   144   142   ar
   100   144   145   ar
   101   131   129    1
   102   142   139   ar
   103    62    61    2
   104    69    68    2
   105   133   136    1
   106   133   132    1
   107    57    56   ar
   108    57    55   ar
   109    64    63    1
   110    64    65    1
   111   108   107    1
   112   108   109    1
   113    56    54   ar
   114   145   143   ar
   115   136   137    1
   116    67    68    1
   117    67    66    1
   118   130   129    1
   119    68    72   am
   120   129   126    1
   121   139   137   ar
   122   139   141   ar
   123    55    53   ar
   124    61    66   am
   125    61    60    1
   126   126   125    1
   127   126   127    1
   128    63    60    1
   129   113   109   am
   130   113   114    1
   131   106   104    1
   132   103   104    2
   133   103   102    1
   134    65    59    1
   135   109   110    2
   136   137   138   ar
   137   120   122   ar
   138   120   118   ar
   139    54    52   ar
   140   101   102    1
   141   101   100    1
   142    60    59    1
   143    72    73    1
   144   117   114    1
   145   117   118    1
   146   143   141   ar
   147   104   105    1
   148    73    76    1
   149    73    74    1
   150   141   140   ar
   151    53    52   ar
   152   122   123   ar
   153   114   115    1
   154    85    84    2
   155    97   100    1
   156    97    96    1
   157    97    98    1
   158   127   128    2
   159    52    51    1
   160   118   119   ar
   161    76    77    1
   162    78    74   am
   163    78    79    1
   164   138   140   ar
   165    74    75    2
   166    82    79    1
   167    82    83    1
   168    98    99    2
   169    81    80    2
   170    84    83    1
   171    84    86   am
   172   123   124    1
   173   123   121   ar
   174   115   116    2
   175    79    80    1
   176    51    48    1
   177   119   121   ar
   178    80    87   am
   179    93    92    1
   180    93    94    1
   181    95    94    1
   182    48    49    1
   183    48    47    1
   184    87    88    1
   185    92    91    1
   186    49    50    2
   187    88    91    1
   188    88    89    1
   189    89    90    2
