@<TRIPOS>MOLECULE
tmp/2hhfB01.pdb
 94 89 0 0 0
SMALL
GASTEIGER

@<TRIPOS>ATOM
      1  N         16.8150    6.1440  -15.3920 N.3    30  PHE30      -0.1241
      2  CA        16.2300    6.7820  -14.2100 C.3    30  PHE30       0.1605
      3  C         17.0940    6.6430  -12.9620 C.2    30  PHE30       0.2264
      4  O         17.4650    5.5360  -12.5610 O.2    30  PHE30      -0.2867
      5  CB        14.8160    6.2320  -13.9200 C.3    30  PHE30       0.0534
      6  CG        13.8950    7.2060  -13.1880 C.ar   30  PHE30      -0.0203
      7  CD1       12.7460    7.7050  -13.8290 C.ar   30  PHE30      -0.0042
      8  CD2       14.1590    7.6220  -11.8610 C.ar   30  PHE30      -0.0042
      9  CE1       11.8640    8.6070  -13.1640 C.ar   30  PHE30      -0.0003
     10  CE2       13.2940    8.5250  -11.1810 C.ar   30  PHE30      -0.0003
     11  CZ        12.1410    9.0170  -11.8350 C.ar   30  PHE30      -0.0000
     12  N         12.1940   10.1520    2.5500 N.3    75  PHE75      -0.1241
     13  CA        12.4670   10.8220    1.3010 C.3    75  PHE75       0.1605
     14  C         11.2220   11.3700    0.6350 C.2    75  PHE75       0.2264
     15  O         10.0930   11.0960    1.0390 O.2    75  PHE75      -0.2867
     16  CB        13.2290    9.8880    0.3360 C.3    75  PHE75       0.0534
     17  CG        12.4190    8.7250   -0.1690 C.ar   75  PHE75      -0.0203
     18  CD1       12.2180    7.5970    0.6370 C.ar   75  PHE75      -0.0042
     19  CD2       11.8390    8.7610   -1.4510 C.ar   75  PHE75      -0.0042
     20  CE1       11.4410    6.5120    0.1730 C.ar   75  PHE75      -0.0003
     21  CE2       11.0600    7.6940   -1.9320 C.ar   75  PHE75      -0.0003
     22  CZ        10.8580    6.5590   -1.1120 C.ar   75  PHE75      -0.0000
     23  N          9.7880   12.7070   -3.5050 N.3    77  GLY77      -0.1225
     24  CA        10.0050   12.5910   -4.9290 C.3    77  GLY77       0.1811
     25  C          9.0640   13.5170   -5.6650 C.2    77  GLY77       0.2280
     26  O          7.8480   13.3860   -5.5510 O.2    77  GLY77      -0.2866
     27  N         14.2610   15.0160  -11.8120 N.3   140  TYR140     -0.1241
     28  CA        13.7230   14.3960  -10.6040 C.3   140  TYR140      0.1605
     29  C         14.4280   15.0120   -9.3920 C.2   140  TYR140      0.2264
     30  O         15.6550   15.1030   -9.3580 O.2   140  TYR140     -0.2867
     31  CB        13.9130   12.8720  -10.6540 C.3   140  TYR140      0.0534
     32  CG        13.2350   12.1160   -9.5340 C.ar  140  TYR140     -0.0201
     33  CD1       11.8340   11.9420   -9.5150 C.ar  140  TYR140     -0.0009
     34  CD2       13.9950   11.5530   -8.4830 C.ar  140  TYR140     -0.0009
     35  CE1       11.1990   11.2150   -8.4670 C.ar  140  TYR140      0.0417
     36  CE2       13.3750   10.8240   -7.4350 C.ar  140  TYR140      0.0417
     37  CZ        11.9870   10.6620   -7.4370 C.ar  140  TYR140      0.1957
     38  OH        11.3950    9.9550   -6.4250 O.3   140  TYR140     -0.2866
     39  N         15.0250   14.8600   -5.3640 N.3   142  ARG142     -0.1245
     40  CA        15.0390   13.9130   -4.2570 C.3   142  ARG142      0.1563
     41  C         15.5300   14.4250   -2.8860 C.2   142  ARG142      0.2260
     42  O         16.7370   14.4170   -2.6100 O.2   142  ARG142     -0.2867
     43  CB        15.7960   12.6390   -4.7070 C.3   142  ARG142      0.0307
     44  CG        16.1150   11.5580   -3.6500 C.3   142  ARG142      0.0489
     45  CD        14.8970   10.9920   -2.9290 C.3   142  ARG142      0.2205
     46  NE        13.9620   10.3090   -3.8140 N.pl3 142  ARG142     -0.0865
     47  CZ        14.0370    9.0210   -4.1430 C.cat 142  ARG142      0.5346
     48  NH1       15.0150    8.2590   -3.6700 N.pl3 142  ARG142      0.1354
     49  NH2       13.0970    8.4810   -4.8980 N.pl3 142  ARG142      0.1354
     50  N          8.7690    8.6750  -19.5680 N.3   172  TYR172     -0.1241
     51  CA         8.3270    7.3520  -19.1210 C.3   172  TYR172      0.1605
     52  C          7.7310    6.6160  -20.3250 C.2   172  TYR172      0.2264
     53  O          7.8870    5.3970  -20.4530 O.2   172  TYR172     -0.2867
     54  CB         7.2930    7.4680  -17.9880 C.3   172  TYR172      0.0534
     55  CG         7.0700    6.1750  -17.2140 C.ar  172  TYR172     -0.0201
     56  CD1        7.7960    5.8990  -16.0360 C.ar  172  TYR172     -0.0009
     57  CD2        6.1470    5.2040  -17.6660 C.ar  172  TYR172     -0.0009
     58  CE1        7.6040    4.6750  -15.3220 C.ar  172  TYR172      0.0417
     59  CE2        5.9550    3.9830  -16.9720 C.ar  172  TYR172      0.0417
     60  CZ         6.6820    3.7280  -15.8050 C.ar  172  TYR172      0.1957
     61  OH         6.4880    2.5380  -15.1400 O.3   172  TYR172     -0.2866
     62  N          6.2980    8.3070    3.4520 N.3   201  LYS201     -0.1245
     63  CA         7.3380    7.9610    2.4830 C.3   201  LYS201      0.1561
     64  C          8.6750    7.7050    3.1900 C.2   201  LYS201      0.2260
     65  O          9.6010    8.5150    3.1470 O.2   201  LYS201     -0.2867
     66  CB         7.4440    9.0300    1.3770 C.3   201  LYS201      0.0271
     67  CG         7.4180    8.4460   -0.0360 C.3   201  LYS201      0.0035
     68  CD         7.3820    9.5270   -1.1190 C.3   201  LYS201      0.0206
     69  CE         7.2820    8.9280   -2.5290 C.3   201  LYS201      0.1093
     70  NZ         5.9560    8.3820   -2.8260 N.3   201  LYS201     -0.1314
     71  N         10.1400    0.3460    1.3450 N.3   206  TYR206     -0.1241
     72  CA        10.6250   -0.0160    0.0060 C.3   206  TYR206      0.1605
     73  C         11.6040   -1.1530   -0.1450 C.2   206  TYR206      0.2264
     74  O         11.5580   -1.8740   -1.1430 O.2   206  TYR206     -0.2867
     75  CB        11.1660    1.2250   -0.6900 C.3   206  TYR206      0.0534
     76  CG        10.1440    2.3120   -0.6810 C.ar  206  TYR206     -0.0201
     77  CD1       10.0370    3.1690    0.4310 C.ar  206  TYR206     -0.0009
     78  CD2        9.1420    2.3630   -1.6650 C.ar  206  TYR206     -0.0009
     79  CE1        8.9430    4.0320    0.5810 C.ar  206  TYR206      0.0417
     80  CE2        8.0470    3.2270   -1.5240 C.ar  206  TYR206      0.0417
     81  CZ         7.9600    4.0540   -0.3830 C.ar  206  TYR206      0.1957
     82  OH         6.8870    4.8770   -0.1670 O.3   206  TYR206     -0.2866
     83  N          4.9380    1.3750   -6.7500 N.3   239  THR239     -0.1218
     84  CA         5.1620    2.5770   -5.9530 C.3   239  THR239      0.1862
     85  C          4.1850    3.6550   -6.4300 C.2   239  THR239      0.2287
     86  O          4.5040    4.8460   -6.4160 O.2   239  THR239     -0.2866
     87  CB         6.6150    3.1040   -6.0810 C.3   239  THR239      0.1770
     88  OG1        6.9540    3.2660   -7.4640 O.3   239  THR239     -0.2211
     89  CG2        7.6040    2.1600   -5.4020 C.3   239  THR239      0.0375
     90  N          6.4510    9.4080  -11.4400 N.3   313  ALA313     -0.1245
     91  CA         7.3200    8.9950  -12.6070 C.3   313  ALA313      0.1562
     92  C          6.4830    8.8180  -13.8740 C.2   313  ALA313      0.2260
     93  O          6.8740    9.2620  -14.9510 O.2   313  ALA313     -0.2867
     94  CB         8.0570    7.6150  -12.3910 C.3   313  ALA313      0.0290
@<TRIPOS>BOND
     1    53    52    2
     2    52    51    1
     3    50    51    1
     4    51    54    1
     5    54    55    1
     6    57    55   ar
     7    57    59   ar
     8    55    56   ar
     9    59    60   ar
    10    56    58   ar
    11    60    58   ar
    12    60    61    1
    13     1     2    1
    14    93    92    2
    15     2     5    1
    16     2     3    1
    17     5     6    1
    18    92    91    1
    19     7     6   ar
    20     7     9   ar
    21     6     8   ar
    22     9    11   ar
    23     3     4    2
    24    91    94    1
    25    91    90    1
    26     8    10   ar
    27    11    10   ar
    28    27    28    1
    29    31    28    1
    30    31    32    1
    31    28    29    1
    32    32    33   ar
    33    32    34   ar
    34    33    35   ar
    35    29    30    2
    36    34    36   ar
    37    35    37   ar
    38    88    87    1
    39    37    36   ar
    40    37    38    1
    41    83    84    1
    42    85    86    2
    43    85    84    1
    44    87    84    1
    45    87    89    1
    46    25    26    2
    47    25    24    1
    48    39    40    1
    49    24    23    1
    50    49    47    1
    51    43    40    1
    52    43    44    1
    53    40    41    1
    54    47    46    2
    55    47    48    1
    56    46    45    1
    57    44    45    1
    58    41    42    2
    59    70    69    1
    60    69    68    1
    61    21    19   ar
    62    21    22   ar
    63    78    80   ar
    64    78    76   ar
    65    80    81   ar
    66    19    17   ar
    67    74    73    2
    68    68    67    1
    69    22    20   ar
    70    75    76    1
    71    75    72    1
    72    76    77   ar
    73    81    82    1
    74    81    79   ar
    75    17    16    1
    76    17    18   ar
    77    73    72    1
    78    67    66    1
    79    72    71    1
    80    20    18   ar
    81    16    13    1
    82    77    79   ar
    83    14    15    2
    84    14    13    1
    85    13    12    1
    86    66    63    1
    87    63    64    1
    88    63    62    1
    89    65    64    2
