@<TRIPOS>MOLECULE
tmp/2hhjB00.pdb
 163 154 0 0 0
SMALL
GASTEIGER

@<TRIPOS>ATOM
      1  N         31.5700   30.3800  105.8960 N.3     9  ARG9       -0.1245
      2  CA        32.7290   31.1170  106.3550 C.3     9  ARG9        0.1563
      3  C         33.8300   30.7470  105.3580 C.2     9  ARG9        0.2260
      4  O         33.9380   29.5940  104.9470 O.2     9  ARG9       -0.2867
      5  CB        33.1120   30.6570  107.7630 C.3     9  ARG9        0.0307
      6  CG        34.3010   31.3950  108.3450 C.3     9  ARG9        0.0489
      7  CD        34.6150   30.9320  109.7550 C.3     9  ARG9        0.2205
      8  NE        35.7100   31.7230  110.3070 N.pl3   9  ARG9       -0.0865
      9  CZ        36.3320   31.4570  111.4470 C.cat   9  ARG9        0.5346
     10  NH1       35.9780   30.4100  112.1800 N.pl3   9  ARG9        0.1354
     11  NH2       37.3120   32.2530  111.8570 N.pl3   9  ARG9        0.1354
     12  N         44.2490   32.1640  110.4710 N.3    15  ASN15      -0.1240
     13  CA        43.4010   31.2080  111.1710 C.3    15  ASN15       0.1653
     14  C         44.3460   30.1590  111.7370 C.2    15  ASN15       0.2266
     15  O         44.2220   29.7390  112.8870 O.2    15  ASN15      -0.2867
     16  CB        42.4150   30.5190  110.2230 C.3    15  ASN15       0.1155
     17  CG        41.3950   31.4690  109.6530 C.2    15  ASN15       0.2627
     18  OD1       41.5510   31.9740  108.5410 O.2    15  ASN15      -0.2716
     19  ND2       40.3400   31.7300  110.4200 N.am   15  ASN15      -0.0877
     20  N         45.5010   34.1140  115.1060 N.3    19  ARG19      -0.1231
     21  CA        45.5330   35.5430  115.3940 C.3    19  ARG19       0.1694
     22  C         44.2470   36.1970  114.9000 C.2    19  ARG19       0.2592
     23  O         43.7560   35.8690  113.8200 O.2    19  ARG19      -0.2718
     24  CB        46.7140   36.2130  114.6840 C.3    19  ARG19       0.0321
     25  CG        48.0850   35.7090  115.0960 C.3    19  ARG19       0.0489
     26  CD        49.1660   36.2960  114.1930 C.3    19  ARG19       0.2205
     27  NE        49.2690   37.7490  114.3050 N.pl3  19  ARG19      -0.0865
     28  CZ        50.0470   38.5040  113.5330 C.cat  19  ARG19       0.5346
     29  NH1       50.7900   37.9450  112.5860 N.pl3  19  ARG19       0.1354
     30  NH2       50.0970   39.8180  113.7130 N.pl3  19  ARG19       0.1354
     31  N         43.7040   37.1170  115.6920 N.am   20  PHE20      -0.1962
     32  CA        42.4990   37.8370  115.2890 C.3    20  PHE20       0.1771
     33  C         42.8880   38.5870  114.0140 C.2    20  PHE20       0.2620
     34  O         43.8330   39.3750  114.0170 O.2    20  PHE20      -0.2715
     35  CB        42.0790   38.8320  116.3740 C.3    20  PHE20       0.0574
     36  CG        41.5000   38.1910  117.6070 C.ar   20  PHE20      -0.0200
     37  CD1       40.2880   37.5070  117.5510 C.ar   20  PHE20      -0.0042
     38  CD2       42.1490   38.3010  118.8330 C.ar   20  PHE20      -0.0042
     39  CE1       39.7340   36.9480  118.6980 C.ar   20  PHE20      -0.0003
     40  CE2       41.6010   37.7430  119.9860 C.ar   20  PHE20      -0.0003
     41  CZ        40.3900   37.0660  119.9180 C.ar   20  PHE20      -0.0000
     42  N         42.1590   38.3470  112.9290 N.am   21  CYS21      -0.1954
     43  CA        42.4710   38.9670  111.6410 C.3    21  CYS21       0.1843
     44  C         41.5050   40.0890  111.2780 C.2    21  CYS21       0.2626
     45  O         41.9210   41.1990  110.9470 O.2    21  CYS21      -0.2714
     46  CB        42.4650   37.8920  110.5570 C.3    21  CYS21       0.0997
     47  SG        43.1460   38.4240  108.9910 S.3    21  CYS21      -0.0797
     48  N         40.2130   39.7880  111.3040 N.am   22  SER22      -0.1950
     49  CA        39.2050   40.8020  111.0380 C.3    22  SER22       0.1924
     50  C         39.3900   41.5270  109.6940 C.2    22  SER22       0.2314
     51  O         39.4560   40.8910  108.6410 O.2    22  SER22      -0.2863
     52  CB        39.2150   41.7950  112.2120 C.3    22  SER22       0.2116
     53  OG        38.1320   42.7010  112.1750 O.3    22  SER22      -0.2180
     54  N         39.8690   36.9290  101.0780 N.3    60  ARG60      -0.1245
     55  CA        39.6920   35.5300  101.4500 C.3    60  ARG60       0.1563
     56  C         38.2730   35.0440  101.1680 C.2    60  ARG60       0.2260
     57  O         38.0810   33.8850  100.8120 O.2    60  ARG60      -0.2867
     58  CB        40.0730   35.2830  102.9190 C.3    60  ARG60       0.0307
     59  CG        39.3500   36.1100  103.9760 C.3    60  ARG60       0.0489
     60  CD        40.0630   35.8750  105.3100 C.3    60  ARG60       0.2205
     61  NE        39.4890   36.5420  106.4810 N.pl3  60  ARG60      -0.0865
     62  CZ        39.7390   37.7980  106.8490 C.cat  60  ARG60       0.5346
     63  NH1       40.5490   38.5670  106.1330 N.pl3  60  ARG60       0.1354
     64  NH2       39.2220   38.2670  107.9790 N.pl3  60  ARG60       0.1354
     65  N         34.0670   40.7930  107.9230 N.3    87  GLU87      -0.1245
     66  CA        34.0840   40.1880  109.2500 C.3    87  GLU87       0.1567
     67  C         33.9570   41.2950  110.3000 C.2    87  GLU87       0.2260
     68  O         34.2590   42.4580  110.0230 O.2    87  GLU87      -0.2867
     69  CB        35.3970   39.4230  109.4640 C.3    87  GLU87       0.0388
     70  CG        35.5540   38.7930  110.8510 C.3    87  GLU87       0.1160
     71  CD        34.4070   37.8540  111.2140 C.2    87  GLU87       0.3649
     72  OE1       33.2460   38.2920  111.1860 O.co2  87  GLU87      -0.2457
     73  OE2       34.6680   36.6760  111.5340 O.co2  87  GLU87      -0.2457
     74  N         37.4750   43.7080  114.9020 N.3    90  TYR90      -0.1241
     75  CA        38.0090   43.4180  116.2320 C.3    90  TYR90       0.1605
     76  C         38.7780   44.5650  116.8820 C.2    90  TYR90       0.2264
     77  O         39.2840   44.4200  117.9970 O.2    90  TYR90      -0.2867
     78  CB        38.9010   42.1710  116.1890 C.3    90  TYR90       0.0534
     79  CG        38.2090   40.9340  116.7060 C.ar   90  TYR90      -0.0201
     80  CD1       38.0000   39.8280  115.8840 C.ar   90  TYR90      -0.0009
     81  CD2       37.7300   40.8860  118.0150 C.ar   90  TYR90      -0.0009
     82  CE1       37.3210   38.7020  116.3530 C.ar   90  TYR90       0.0417
     83  CE2       37.0550   39.7700  118.4940 C.ar   90  TYR90       0.0417
     84  CZ        36.8520   38.6840  117.6590 C.ar   90  TYR90       0.1957
     85  OH        36.1660   37.5880  118.1290 O.3    90  TYR90      -0.2866
     86  N         45.0160   34.5310  119.9770 N.3    98  ARG98      -0.1245
     87  CA        43.8990   34.1490  120.8400 C.3    98  ARG98       0.1563
     88  C         44.2910   33.3310  122.0660 C.2    98  ARG98       0.2260
     89  O         43.8060   33.5910  123.1660 O.2    98  ARG98      -0.2867
     90  CB        42.8460   33.3690  120.0470 C.3    98  ARG98       0.0307
     91  CG        42.2790   34.0960  118.8370 C.3    98  ARG98       0.0489
     92  CD        41.0910   33.3260  118.2730 C.3    98  ARG98       0.2205
     93  NE        40.5590   33.9300  117.0540 N.pl3  98  ARG98      -0.0865
     94  CZ        41.1410   33.8550  115.8610 C.cat  98  ARG98       0.5346
     95  NH1       42.2850   33.1950  115.7140 N.pl3  98  ARG98       0.1354
     96  NH2       40.5810   34.4430  114.8120 N.pl3  98  ARG98       0.1354
     97  N         35.0840   37.1580  122.0440 N.3   114  ARG114     -0.1231
     98  CA        34.8120   36.4940  120.7750 C.3   114  ARG114      0.1694
     99  C         33.3440   36.2790  120.4230 C.2   114  ARG114      0.2591
    100  O         32.9410   36.5140  119.2830 O.2   114  ARG114     -0.2718
    101  CB        35.4930   35.1230  120.7270 C.3   114  ARG114      0.0321
    102  CG        37.0020   35.1270  120.8550 C.3   114  ARG114      0.0489
    103  CD        37.5160   33.6930  120.8490 C.3   114  ARG114      0.2205
    104  NE        37.5240   33.1150  119.5090 N.pl3 114  ARG114     -0.0865
    105  CZ        37.6460   31.8160  119.2450 C.cat 114  ARG114      0.5346
    106  NH1       37.7570   30.9360  120.2310 N.pl3 114  ARG114      0.1354
    107  NH2       37.6990   31.4000  117.9850 N.pl3 114  ARG114      0.1354
    108  N         32.5510   35.8300  121.3900 N.am  115  ARG115     -0.1980
    109  CA        31.1530   35.5080  121.1110 C.3   115  ARG115      0.1597
    110  C         30.0360   36.3940  121.6600 C.2   115  ARG115      0.2287
    111  O         28.8760   36.2060  121.2980 O.2   115  ARG115     -0.2864
    112  CB        30.9040   34.0550  121.5220 C.3   115  ARG115      0.0334
    113  CG        31.8210   33.0700  120.8010 C.3   115  ARG115      0.0492
    114  CD        31.4260   32.9050  119.3360 C.3   115  ARG115      0.2205
    115  NE        32.4450   32.1670  118.5940 N.pl3 115  ARG115     -0.0865
    116  CZ        33.4290   32.7370  117.9060 C.cat 115  ARG115      0.5346
    117  NH1       33.5240   34.0580  117.8450 N.pl3 115  ARG115      0.1354
    118  NH2       34.3500   31.9840  117.3160 N.pl3 115  ARG115      0.1354
    119  N         32.2750   35.6400  106.5340 N.3   186  HIS186     -0.1226
    120  CA        33.1720   35.3560  107.6420 C.3   186  HIS186      0.1752
    121  C         32.4840   34.7550  108.8640 C.2   186  HIS186      0.2597
    122  O         31.2570   34.6340  108.9070 O.2   186  HIS186     -0.2718
    123  CB        33.9000   36.6580  108.0010 C.3   186  HIS186      0.0759
    124  CG        34.5800   37.2990  106.8270 C.ar  186  HIS186      0.0818
    125  ND1       35.9050   37.0710  106.5210 N.ar  186  HIS186     -0.2268
    126  CD2       34.1010   38.0990  105.8430 C.ar  186  HIS186      0.1154
    127  CE1       36.2120   37.7000  105.3990 C.ar  186  HIS186      0.1986
    128  NE2       35.1350   38.3300  104.9660 N.ar  186  HIS186     -0.2212
    129  N         33.2830   34.3800  109.8570 N.am  187  GLY187     -0.1942
    130  CA        32.7390   33.7660  111.0530 C.3   187  GLY187      0.2014
    131  C         31.6730   34.5600  111.7760 C.2   187  GLY187      0.2638
    132  O         30.5610   34.0760  111.9850 O.2   187  GLY187     -0.2714
    133  N         31.9950   35.7890  112.1530 N.am  188  ASN188     -0.1972
    134  CA        31.0380   36.5970  112.8850 C.3   188  ASN188      0.1688
    135  C         30.0090   37.3180  112.0340 C.2   188  ASN188      0.2292
    136  O         28.8740   37.5000  112.4740 O.2   188  ASN188     -0.2864
    137  CB        31.7830   37.5570  113.8140 C.3   188  ASN188      0.1181
    138  CG        32.6180   36.8090  114.8390 C.2   188  ASN188      0.2629
    139  OD1       32.1400   35.8480  115.4480 O.2   188  ASN188     -0.2716
    140  ND2       33.8620   37.2330  115.0280 N.am  188  ASN188     -0.0877
    141  N         35.6090   27.1000  109.3130 N.3   212  THR212     -0.1218
    142  CA        35.9810   27.6270  108.0100 C.3   212  THR212      0.1862
    143  C         35.6730   26.6270  106.9010 C.2   212  THR212      0.2287
    144  O         35.7760   25.4110  107.0890 O.2   212  THR212     -0.2866
    145  CB        37.4890   27.9760  107.9360 C.3   212  THR212      0.1770
    146  OG1       38.2660   26.8110  108.2340 O.3   212  THR212     -0.2211
    147  CG2       37.8360   29.0880  108.9250 C.3   212  THR212      0.0375
    148  N         37.6980   25.5880  116.4230 N.3   246  VAL246     -0.1245
    149  CA        37.5460   27.0340  116.5220 C.3   246  VAL246      0.1561
    150  C         37.3680   27.4560  117.9790 C.2   246  VAL246      0.2260
    151  O         37.9510   28.4440  118.4180 O.2   246  VAL246     -0.2867
    152  CB        36.3350   27.5350  115.7070 C.3   246  VAL246      0.0252
    153  CG1       36.1640   29.0380  115.8950 C.3   246  VAL246      0.0019
    154  CG2       36.5310   27.2070  114.2330 C.3   246  VAL246      0.0019
    155  N         40.5520   27.5120  120.0220 N.3   249  GLN249     -0.1245
    156  CA        41.5500   28.5270  119.7050 C.3   249  GLN249      0.1566
    157  C         41.6970   29.4610  120.9010 C.2   249  GLN249      0.2260
    158  O         42.7460   30.0740  121.1010 O.2   249  GLN249     -0.2867
    159  CB        41.1290   29.3460  118.4860 C.3   249  GLN249      0.0367
    160  CG        41.1770   28.6030  117.1660 C.3   249  GLN249      0.0905
    161  CD        40.7940   29.5010  116.0080 C.2   249  GLN249      0.2608
    162  OE1       39.6930   30.0540  115.9770 O.2   249  GLN249     -0.2717
    163  NE2       41.7020   29.6600  115.0540 N.am  249  GLN249     -0.0878
@<TRIPOS>BOND
     1    57    56    2
     2    54    55    1
     3    56    55    1
     4    55    58    1
     5    58    59    1
     6    59    60    1
     7     4     3    2
     8   128   127   ar
     9   128   126   ar
    10    60    61    1
    11     3     2    1
    12   127   125   ar
    13   126   124   ar
    14     1     2    1
    15    63    62    1
    16     2     5    1
    17    61    62    2
    18   125   124   ar
    19   119   120    1
    20   124   123    1
    21    62    64    1
    22   143   144    2
    23   143   142    1
    24   120   123    1
    25   120   121    1
    26     5     6    1
    27    65    66    1
    28   145   142    1
    29   145   146    1
    30   145   147    1
    31   142   141    1
    32     6     7    1
    33    18    17    2
    34    51    50    2
    35   121   122    2
    36   121   129   am
    37    47    46    1
    38    66    69    1
    39    66    67    1
    40    69    70    1
    41    17    16    1
    42    17    19   am
    43    50    49    1
    44     7     8    1
    45   129   130    1
    46    68    67    2
    47    16    13    1
    48     8     9    2
    49    12    13    1
    50    46    43    1
    51    70    71    1
    52    45    44    2
    53    49    48    1
    54    49    52    1
    55   130   131    1
    56    13    14    1
    57    72    71   ar
    58    71    73   ar
    59    44    48   am
    60    44    43    1
    61     9    11    1
    62     9    10    1
    63    43    42    1
    64    14    15    2
    65   131   132    2
    66   131   133   am
    67   135   136    2
    68   135   134    1
    69   133   134    1
    70    53    52    1
    71    29    28    1
    72   134   137    1
    73    42    33   am
    74    28    30    1
    75    28    27    2
    76   137   138    1
    77    23    22    2
    78    33    34    2
    79    33    32    1
    80    26    27    1
    81    26    25    1
    82   154   152    1
    83    24    25    1
    84    24    21    1
    85    96    94    1
    86   138   140   am
    87   138   139    2
    88    22    21    1
    89    22    31   am
    90    74    75    1
    91   163   161   am
    92    20    21    1
    93    32    31    1
    94    32    35    1
    95   152   153    1
    96   152   149    1
    97    95    94    1
    98    94    93    2
    99    80    82   ar
   100    80    79   ar
   101   162   161    2
   102   161   160    1
   103    78    75    1
   104    78    79    1
   105    75    76    1
   106    82    84   ar
   107    35    36    1
   108   148   149    1
   109   149   150    1
   110    79    81   ar
   111    76    77    2
   112    93    92    1
   113   160   159    1
   114   118   116    1
   115    37    36   ar
   116    37    39   ar
   117    36    38   ar
   118    84    85    1
   119    84    83   ar
   120   117   116    1
   121   116   115    2
   122   150   151    2
   123   107   105    1
   124    81    83   ar
   125    92    91    1
   126   159   156    1
   127   115   114    1
   128    39    41   ar
   129    38    40   ar
   130    91    90    1
   131   105   104    2
   132   105   106    1
   133   100    99    2
   134   114   113    1
   135   104   103    1
   136   156   155    1
   137   156   157    1
   138    41    40   ar
   139    86    87    1
   140    90    87    1
   141    99    98    1
   142    99   108   am
   143   101    98    1
   144   101   102    1
   145    98    97    1
   146   113   112    1
   147    87    88    1
   148   103   102    1
   149   157   158    2
   150   109   108    1
   151   109   112    1
   152   109   110    1
   153   111   110    2
   154    88    89    2
