@<TRIPOS>MOLECULE
tmp/2hhnB00.pdb
 199 200 0 0 0
SMALL
GASTEIGER

@<TRIPOS>ATOM
      1  N         49.2110   20.4510   18.9050 N.3    18  TYR18      -0.1227
      2  CA        49.6780   21.6470   18.2100 C.3    18  TYR18       0.1736
      3  C         48.9410   21.7260   16.8900 C.2    18  TYR18       0.2595
      4  O         49.2110   20.9430   15.9910 O.2    18  TYR18      -0.2718
      5  CB        51.1790   21.5500   17.9730 C.3    18  TYR18       0.0548
      6  CG        51.7720   22.7140   17.2250 C.ar   18  TYR18      -0.0200
      7  CD1       51.9380   23.9300   17.8500 C.ar   18  TYR18      -0.0009
      8  CD2       52.1520   22.5940   15.9010 C.ar   18  TYR18      -0.0009
      9  CE1       52.4750   25.0180   17.1700 C.ar   18  TYR18       0.0417
     10  CE2       52.6920   23.6510   15.2210 C.ar   18  TYR18       0.0417
     11  CZ        52.8570   24.8630   15.8670 C.ar   18  TYR18       0.1957
     12  OH        53.3980   25.9480   15.2050 O.3    18  TYR18      -0.2866
     13  N         48.0030   22.6630   16.7780 N.am   19  GLN19      -0.1965
     14  CA        47.1820   22.7620   15.5790 C.3    19  GLN19       0.1733
     15  C         47.9440   23.3410   14.3800 C.2    19  GLN19       0.2617
     16  O         47.5440   23.1480   13.2410 O.2    19  GLN19      -0.2715
     17  CB        45.9030   23.5380   15.8570 C.3    19  GLN19       0.0408
     18  CG        46.0580   24.9750   16.0540 C.3    19  GLN19       0.0908
     19  CD        44.7330   25.6120   16.4630 C.2    19  GLN19       0.2608
     20  OE1       44.1230   25.2520   17.4570 O.2    19  GLN19      -0.2717
     21  NE2       44.3160   26.6120   15.7000 N.am   19  GLN19      -0.0878
     22  N         49.0080   24.0820   14.6650 N.am   20  GLY20      -0.1940
     23  CA        49.7720   24.7310   13.6070 C.3    20  GLY20       0.2014
     24  C         48.9470   25.7450   12.8570 C.2    20  GLY20       0.2640
     25  O         48.1110   26.4490   13.4290 O.2    20  GLY20      -0.2714
     26  N         49.1660   25.8040   11.5530 N.am   21  SER21      -0.1935
     27  CA        48.5480   26.8400   10.7420 C.3    21  SER21       0.2055
     28  C         47.0840   26.5550   10.3940 C.2    21  SER21       0.2643
     29  O         46.4240   27.3740    9.7540 O.2    21  SER21      -0.2714
     30  CB        49.3670   27.0520    9.4740 C.3    21  SER21       0.2130
     31  OG        49.5250   25.8230    8.8080 O.3    21  SER21      -0.2179
     32  N         46.5530   25.4380   10.8630 N.am   22  CYS22      -0.1953
     33  CA        45.1880   25.0250   10.5560 C.3    22  CYS22       0.1843
     34  C         44.2660   25.3670   11.7110 C.2    22  CYS22       0.2626
     35  O         44.6010   25.0650   12.8550 O.2    22  CYS22      -0.2714
     36  CB        45.2100   23.5310   10.3240 C.3    22  CYS22       0.0997
     37  SG        43.6630   22.6840   10.1630 S.3    22  CYS22      -0.0797
     38  N         43.1340   26.0040   11.4110 N.am   23  GLY23      -0.1954
     39  CA        42.1870   26.4730   12.4280 C.3    23  GLY23       0.1869
     40  C         41.2830   25.3630   12.8940 C.2    23  GLY23       0.2309
     41  O         40.0590   25.4330   12.7260 O.2    23  GLY23      -0.2863
     42  N         41.0580   24.2480   16.0430 N.3    25  CYS25      -0.1221
     43  CA        40.7770   24.3300   17.4660 C.3    25  CYS25       0.1808
     44  C         39.4510   23.6520   17.8200 C.2    25  CYS25       0.2601
     45  O         39.3430   22.9430   18.8080 O.2    25  CYS25      -0.2717
     46  CB        40.7550   25.8090   17.9110 C.3    25  CYS25       0.0970
     47  SG        39.4320   26.7780   17.0980 S.3    25  CYS25      -0.0800
     48  N         38.4290   23.8560   16.9960 N.am   26  TRP26      -0.1976
     49  CA        37.1280   23.2490   17.2400 C.3    26  TRP26       0.1640
     50  C         37.1890   21.7250   17.2900 C.2    26  TRP26       0.2290
     51  O         36.5200   21.0800   18.1130 O.2    26  TRP26      -0.2864
     52  CB        36.1540   23.7220   16.1620 C.3    26  TRP26       0.0576
     53  CG        36.5650   23.3040   14.7800 C.ar   26  TRP26       0.0006
     54  CD1       37.4640   23.9510   13.9880 C.ar   26  TRP26       0.0946
     55  CD2       36.1130   22.1670   14.0330 C.ar   26  TRP26       0.0152
     56  NE1       37.6140   23.2780   12.8140 N.ar   26  TRP26      -0.2442
     57  CE2       36.7940   22.1880   12.8070 C.ar   26  TRP26       0.0810
     58  CE3       35.2040   21.1270   14.2780 C.ar   26  TRP26       0.0012
     59  CZ2       36.5830   21.2270   11.8260 C.ar   26  TRP26       0.0191
     60  CZ3       35.0200   20.1520   13.2940 C.ar   26  TRP26       0.0001
     61  CH2       35.7080   20.2080   12.1060 C.ar   26  TRP26       0.0015
     62  N         28.2400   22.1150    8.7540 N.3    62  GLY62      -0.1210
     63  CA        28.5070   23.5320    8.8510 C.3    62  GLY62       0.1956
     64  C         29.9280   23.9090    9.1640 C.2    62  GLY62       0.2612
     65  O         30.2160   25.0400    9.5190 O.2    62  GLY62      -0.2717
     66  N         30.8260   22.9460    9.0270 N.am   63  ASN63      -0.1960
     67  CA        32.2150   23.1490    9.3490 C.3    63  ASN63       0.1819
     68  C         33.0530   23.3540    8.1080 C.2    63  ASN63       0.2621
     69  O         32.6890   22.9130    7.0260 O.2    63  ASN63      -0.2715
     70  CB        32.7670   21.9410   10.1170 C.3    63  ASN63       0.1195
     71  CG        32.0700   21.7310   11.4000 C.2    63  ASN63       0.2630
     72  OD1       31.6400   22.6970   11.9970 O.2    63  ASN63      -0.2716
     73  ND2       31.9270   20.4720   11.8350 N.am   63  ASN63      -0.0877
     74  N         34.2010   23.9860    8.3190 N.am   64  LYS64      -0.1977
     75  CA        35.0700   24.4600    7.2510 C.3    64  LYS64       0.1596
     76  C         36.5130   24.0460    7.4510 C.2    64  LYS64       0.2287
     77  O         37.4400   24.7330    6.9880 O.2    64  LYS64      -0.2864
     78  CB        34.9380   25.9830    7.1330 C.3    64  LYS64       0.0298
     79  CG        33.5260   26.4000    6.8200 C.3    64  LYS64       0.0038
     80  CD        33.4240   27.8490    6.6000 C.3    64  LYS64       0.0206
     81  CE        31.9730   28.2620    6.3550 C.3    64  LYS64       0.1093
     82  NZ        31.8930   29.7130    6.0200 N.3    64  LYS64      -0.1314
     83  N         40.0920   23.5540    8.2390 N.3    66  CYS66      -0.1221
     84  CA        41.0740   24.4710    8.7810 C.3    66  CYS66       0.1808
     85  C         40.6120   25.9130    8.8590 C.2    66  CYS66       0.2601
     86  O         41.3080   26.7310    9.4460 O.2    66  CYS66      -0.2717
     87  CB        42.3610   24.3870    7.9890 C.3    66  CYS66       0.0970
     88  SG        43.2320   22.8690    8.1570 S.3    66  CYS66      -0.0800
     89  N         39.4430   26.2270    8.3040 N.am   67  ASN67      -0.1960
     90  CA        38.8600   27.5600    8.4330 C.3    67  ASN67       0.1819
     91  C         37.7710   27.6310    9.4850 C.2    67  ASN67       0.2622
     92  O         37.0210   28.6030    9.5530 O.2    67  ASN67      -0.2715
     93  CB        38.3260   28.0390    7.0790 C.3    67  ASN67       0.1195
     94  CG        39.4440   28.4050    6.1210 C.2    67  ASN67       0.2630
     95  OD1       40.4310   29.0150    6.5180 O.2    67  ASN67      -0.2716
     96  ND2       39.2940   28.0300    4.8600 N.am   67  ASN67      -0.0877
     97  N         37.7210   26.6330   10.3510 N.am   68  GLY68      -0.1940
     98  CA        36.8480   26.6810   11.5030 C.3    68  GLY68       0.2014
     99  C         35.6630   25.7560   11.4760 C.2    68  GLY68       0.2639
    100  O         35.2720   25.2150   10.4540 O.2    68  GLY68      -0.2714
    101  N         35.0760   25.5920   12.6380 N.am   69  GLY69      -0.1939
    102  CA        33.9390   24.6960   12.7820 C.3    69  GLY69       0.2014
    103  C         33.3440   24.7380   14.1560 C.2    69  GLY69       0.2639
    104  O         33.6770   25.6150   14.9570 O.2    69  GLY69      -0.2714
    105  N         32.4400   23.7930   14.3990 N.am   70  PHE70      -0.1959
    106  CA        31.6720   23.7430   15.6210 C.3    70  PHE70       0.1771
    107  C         31.8940   22.4360   16.3580 C.2    70  PHE70       0.2619
    108  O         31.7840   21.3540   15.7890 O.2    70  PHE70      -0.2715
    109  CB        30.1830   23.8460   15.3350 C.3    70  PHE70       0.0574
    110  CG        29.7750   25.0930   14.6150 C.ar   70  PHE70      -0.0200
    111  CD1       29.7030   26.3000   15.2800 C.ar   70  PHE70      -0.0042
    112  CD2       29.4390   25.0410   13.2650 C.ar   70  PHE70      -0.0042
    113  CE1       29.3200   27.4460   14.5950 C.ar   70  PHE70      -0.0003
    114  CE2       29.0610   26.1960   12.5790 C.ar   70  PHE70      -0.0003
    115  CZ        29.0000   27.3800   13.2520 C.ar   70  PHE70      -0.0000
    116  N         32.1290   22.5390   17.6470 N.am   71  MET71      -0.1963
    117  CA        32.3000   21.3710   18.4670 C.3    71  MET71       0.1736
    118  C         31.0270   20.5340   18.4830 C.2    71  MET71       0.2617
    119  O         31.0880   19.3060   18.3970 O.2    71  MET71      -0.2715
    120  CB        32.7130   21.7930   19.8820 C.3    71  MET71       0.0427
    121  CG        34.0670   22.5250   19.9340 C.3    71  MET71       0.0599
    122  SD        34.0370   24.2990   19.6250 S.3    71  MET71      -0.1393
    123  CE        33.3740   24.7830   21.2060 C.3    71  MET71       0.0692
    124  N         29.8740   21.1850   18.5970 N.am   72  THR72      -0.1951
    125  CA        28.6290   20.4510   18.6550 C.3    72  THR72       0.1897
    126  C         28.3680   19.6490   17.3910 C.2    72  THR72       0.2313
    127  O         27.9570   18.5150   17.4490 O.2    72  THR72      -0.2863
    128  CB        27.4240   21.3410   18.9180 C.3    72  THR72       0.1794
    129  OG1       27.3740   22.3880   17.9360 O.3    72  THR72      -0.2208
    130  CG2       27.4860   21.9560   20.3080 C.3    72  THR72       0.0378
    131  N         33.8010   27.7240   23.5550 N.3   137  GLY137     -0.1225
    132  CA        34.3670   28.7390   22.7180 C.3   137  GLY137      0.1811
    133  C         34.7440   29.9170   23.5790 C.2   137  GLY137      0.2280
    134  O         34.0680   30.2230   24.5470 O.2   137  GLY137     -0.2866
    135  N         47.3370   35.6730   22.9060 N.3   146  PHE146     -0.1241
    136  CA        48.5320   35.1650   22.2270 C.3   146  PHE146      0.1605
    137  C         49.7930   35.2810   23.0800 C.2   146  PHE146      0.2264
    138  O         50.6750   34.4070   23.0330 O.2   146  PHE146     -0.2867
    139  CB        48.7650   35.9130   20.9240 C.3   146  PHE146      0.0534
    140  CG        47.7810   35.5700   19.8550 C.ar  146  PHE146     -0.0203
    141  CD1       48.0690   34.5750   18.9410 C.ar  146  PHE146     -0.0042
    142  CD2       46.5480   36.2200   19.7840 C.ar  146  PHE146     -0.0042
    143  CE1       47.1860   34.2550   17.9700 C.ar  146  PHE146     -0.0003
    144  CE2       45.6340   35.8870   18.8130 C.ar  146  PHE146     -0.0003
    145  CZ        45.9540   34.9000   17.8960 C.ar  146  PHE146     -0.0000
    146  N         32.5300   34.5990   20.7120 N.3   162  VAL162     -0.1231
    147  CA        33.5220   33.5340   20.7250 C.3   162  VAL162      0.1692
    148  C         34.0220   33.2010   19.3320 C.2   162  VAL162      0.2592
    149  O         33.3030   33.3130   18.3420 O.2   162  VAL162     -0.2718
    150  CB        33.0160   32.2500   21.4180 C.3   162  VAL162      0.0266
    151  CG1       32.5590   32.5670   22.8430 C.3   162  VAL162      0.0020
    152  CG2       31.9300   31.5470   20.6230 C.3   162  VAL162      0.0020
    153  N         35.2720   32.7670   19.2740 N.am  163  ASN163     -0.1960
    154  CA        35.9050   32.4510   17.9970 C.3   163  ASN163      0.1819
    155  C         36.9470   31.3580   18.0790 C.2   163  ASN163      0.2621
    156  O         37.5300   31.0250   17.0640 O.2   163  ASN163     -0.2715
    157  CB        36.5360   33.7350   17.4460 C.3   163  ASN163      0.1195
    158  CG        37.2560   34.4950   18.5120 C.2   163  ASN163      0.2630
    159  OD1       38.2080   33.9970   19.0390 O.2   163  ASN163     -0.2716
    160  ND2       36.7480   35.6770   18.9000 N.am  163  ASN163     -0.0877
    161  N         37.2100   30.8070   19.2700 N.am  164  HIS164     -0.1959
    162  CA        38.2980   29.8520   19.4320 C.3   164  HIS164      0.1787
    163  C         37.8030   28.7330   20.3260 C.2   164  HIS164      0.2620
    164  O         37.3670   28.9740   21.4450 O.2   164  HIS164     -0.2715
    165  CB        39.4800   30.5820   20.0450 C.3   164  HIS164      0.0785
    166  CG        40.6830   29.7320   20.2360 C.ar  164  HIS164      0.0821
    167  ND1       41.3310   29.1360   19.1830 N.ar  164  HIS164     -0.2267
    168  CD2       41.3670   29.3810   21.3510 C.ar  164  HIS164      0.1154
    169  CE1       42.3610   28.4460   19.6430 C.ar  164  HIS164      0.1986
    170  NE2       42.4040   28.5780   20.9520 N.ar  164  HIS164     -0.2212
    171  N         37.8480   27.5110   19.8130 N.am  165  GLY165     -0.1954
    172  CA        37.3730   26.3690   20.5700 C.3   165  GLY165      0.1869
    173  C         38.4630   25.8060   21.4460 C.2   165  GLY165      0.2309
    174  O         39.5680   25.5700   20.9800 O.2   165  GLY165     -0.2863
    175  N         47.4370   24.9140   20.9310 N.3   186  TRP186     -0.1241
    176  CA        48.5150   25.7070   20.3250 C.3   186  TRP186      0.1605
    177  C         49.8780   25.1570   20.7460 C.2   186  TRP186      0.2264
    178  O         50.8940   25.8720   20.7460 O.2   186  TRP186     -0.2867
    179  CB        48.3860   27.1670   20.7280 C.3   186  TRP186      0.0550
    180  CG        47.3170   27.8930   20.0240 C.ar  186  TRP186      0.0003
    181  CD1       46.4270   27.3800   19.1370 C.ar  186  TRP186      0.0946
    182  CD2       46.9870   29.2740   20.1830 C.ar  186  TRP186      0.0152
    183  NE1       45.5640   28.3630   18.7320 N.ar  186  TRP186     -0.2442
    184  CE2       45.8920   29.5390   19.3600 C.ar  186  TRP186      0.0810
    185  CE3       47.4990   30.3050   20.9710 C.ar  186  TRP186      0.0012
    186  CZ2       45.3120   30.8130   19.2830 C.ar  186  TRP186      0.0191
    187  CZ3       46.9250   31.5540   20.8870 C.ar  186  TRP186      0.0001
    188  CH2       45.8540   31.7960   20.0500 C.ar  186  TRP186      0.0015
    189  N         28.9420   29.1040   25.0600 N.3   211  PHE211     -0.1241
    190  CA        28.5350   27.9220   24.2990 C.3   211  PHE211      0.1605
    191  C         29.3030   26.6770   24.7120 C.2   211  PHE211      0.2264
    192  O         30.0660   26.1280   23.9340 O.2   211  PHE211     -0.2867
    193  CB        28.7070   28.1770   22.8180 C.3   211  PHE211      0.0534
    194  CG        27.8980   29.3350   22.3240 C.ar  211  PHE211     -0.0203
    195  CD1       26.5270   29.2020   22.1470 C.ar  211  PHE211     -0.0042
    196  CD2       28.4900   30.5620   22.0800 C.ar  211  PHE211     -0.0042
    197  CE1       25.7660   30.2950   21.6850 C.ar  211  PHE211     -0.0003
    198  CE2       27.7180   31.6420   21.6580 C.ar  211  PHE211     -0.0003
    199  CZ        26.3770   31.4950   21.4670 C.ar  211  PHE211     -0.0000
@<TRIPOS>BOND
     1    96    94   am
     2    82    81    1
     3    94    95    2
     4    94    93    1
     5    81    80    1
     6    80    79    1
     7    79    78    1
     8    77    76    2
     9    69    68    2
    10    93    90    1
    11    78    75    1
    12    75    76    1
    13    75    74    1
    14    87    88    1
    15    87    84    1
    16    68    74   am
    17    68    67    1
    18    88    37    1
    19    83    84    1
    20    89    90    1
    21    89    85   am
    22    90    91    1
    23    62    63    1
    24    84    85    1
    25    31    30    1
    26    63    64    1
    27    85    86    2
    28    66    64   am
    29    66    67    1
    30    64    65    2
    31    67    70    1
    32    30    27    1
    33    91    92    2
    34    91    97   am
    35    29    28    2
    36    70    71    1
    37    37    36    1
    38    36    33    1
    39    97    98    1
    40    28    27    1
    41    28    32   am
    42   100    99    2
    43    33    32    1
    44    33    34    1
    45    27    26    1
    46    71    73   am
    47    71    72    2
    48    38    34   am
    49    38    39    1
    50    99    98    1
    51    99   101   am
    52    26    24   am
    53    34    35    2
    54    59    61   ar
    55    59    57   ar
    56    61    60   ar
    57    39    40    1
    58   114   115   ar
    59   114   112   ar
    60   101   102    1
    61    41    40    2
    62   102   103    1
    63    57    56   ar
    64    57    55   ar
    65    56    54   ar
    66    24    25    2
    67    24    23    1
    68    16    15    2
    69   115   113   ar
    70   112   110   ar
    71    60    58   ar
    72    23    22    1
    73    54    53   ar
    74    55    58   ar
    75    55    53   ar
    76   103   105   am
    77   103   104    2
    78    15    22   am
    79    15    14    1
    80   105   106    1
    81   113   111   ar
    82   110   111   ar
    83   110   109    1
    84    53    52    1
    85    12    11    1
    86    10    11   ar
    87    10     8   ar
    88   109   106    1
    89    14    17    1
    90    14    13    1
    91   106   107    1
    92    21    19   am
    93   108   107    2
    94    17    18    1
    95    11     9   ar
    96     8     6   ar
    97     4     3    2
    98    42    43    1
    99    18    19    1
   100    52    49    1
   101   107   116   am
   102    19    20    2
   103    13     3   am
   104     3     2    1
   105    48    49    1
   106    48    44   am
   107   156   155    2
   108    47    46    1
   109     9     7   ar
   110     6     7   ar
   111     6     5    1
   112    49    50    1
   113    50    51    2
   114   126   127    2
   115   126   125    1
   116   157   154    1
   117   157   158    1
   118    43    44    1
   119    43    46    1
   120   116   117    1
   121    44    45    2
   122   145   143   ar
   123   145   144   ar
   124   129   128    1
   125   143   141   ar
   126     5     2    1
   127   154   155    1
   128   154   153    1
   129   155   161   am
   130     2     1    1
   131   149   148    2
   132   119   118    2
   133   117   118    1
   134   117   120    1
   135   118   124   am
   136   158   160   am
   137   158   159    2
   138   124   125    1
   139   125   128    1
   140   183   181   ar
   141   183   184   ar
   142   144   142   ar
   143   128   130    1
   144   141   140   ar
   145   181   180   ar
   146   167   169   ar
   147   167   166   ar
   148   161   162    1
   149   153   148   am
   150   186   184   ar
   151   186   188   ar
   152   148   147    1
   153   184   182   ar
   154   162   165    1
   155   162   163    1
   156   122   121    1
   157   122   123    1
   158   169   170   ar
   159   142   140   ar
   160   171   163   am
   161   171   172    1
   162   140   139    1
   163   120   121    1
   164   180   182   ar
   165   180   179    1
   166   165   166    1
   167   188   187   ar
   168   182   185   ar
   169   166   168   ar
   170   176   179    1
   171   176   177    1
   172   176   175    1
   173   163   164    2
   174   172   173    1
   175   152   150    1
   176   146   147    1
   177   147   150    1
   178   178   177    2
   179   187   185   ar
   180   139   136    1
   181   170   168   ar
   182   174   173    2
   183   150   151    1
   184   199   198   ar
   185   199   197   ar
   186   198   196   ar
   187   197   195   ar
   188   196   194   ar
   189   195   194   ar
   190   136   135    1
   191   136   137    1
   192   194   193    1
   193   132   131    1
   194   132   133    1
   195   193   190    1
   196   138   137    2
   197   133   134    2
   198   192   191    2
   199   190   191    1
   200   190   189    1
