@<TRIPOS>MOLECULE
tmp/2hhpA01.pdb
 67 63 0 0 0
SMALL
GASTEIGER

@<TRIPOS>ATOM
      1  N          2.5120    6.3180    8.6500 N.3    86  SER86      -0.1217
      2  CA         1.0680    6.5240    8.4310 C.3    86  SER86       0.1889
      3  C          0.6870    7.8860    7.8490 C.2    86  SER86       0.2288
      4  O         -0.1790    7.9630    7.0140 O.2    86  SER86      -0.2866
      5  CB         0.2600    6.2430    9.7070 C.3    86  SER86       0.2089
      6  OG         0.5040    7.2280   10.6920 O.3    86  SER86      -0.2183
      7  N          1.0650   10.3850   15.4020 N.3    97  ASP97      -0.1239
      8  CA         2.3890   11.0670   15.2720 C.3    97  ASP97       0.1674
      9  C          2.7360   11.2400   13.7950 C.2    97  ASP97       0.2266
     10  O          2.2820   10.4530   12.9550 O.2    97  ASP97      -0.2867
     11  CB         3.5230   10.2160   15.8800 C.3    97  ASP97       0.1410
     12  CG         3.4290   10.0290   17.3980 C.2    97  ASP97       0.3668
     13  OD1        2.5180   10.5500   18.0840 O.co2  97  ASP97      -0.2456
     14  OD2        4.2930    9.3310   18.0110 O.co2  97  ASP97      -0.2456
     15  N          5.8390   10.7100   11.5780 N.3    99  ASP99      -0.1239
     16  CA         7.1930   10.1620   11.4890 C.3    99  ASP99       0.1674
     17  C          7.9120   11.0230   10.5170 C.2    99  ASP99       0.2266
     18  O          7.5020   11.1000    9.3490 O.2    99  ASP99      -0.2867
     19  CB         7.1470    8.7350   10.9640 C.3    99  ASP99       0.1410
     20  CG         6.4540    7.7970   11.9080 C.2    99  ASP99       0.3668
     21  OD1        5.9610    6.7690   11.4080 O.co2  99  ASP99      -0.2456
     22  OD2        6.3690    7.9950   13.1580 O.co2  99  ASP99      -0.2456
     23  N         -1.6820   -5.8010   16.7380 N.3   221  TYR221     -0.1227
     24  CA        -0.8730   -4.7010   16.2340 C.3   221  TYR221      0.1736
     25  C          0.1120   -4.3200   17.3240 C.2   221  TYR221      0.2595
     26  O         -0.2760   -3.7040   18.3370 O.2   221  TYR221     -0.2718
     27  CB        -1.8090   -3.5180   15.9160 C.3   221  TYR221      0.0548
     28  CG        -1.2100   -2.3740   15.1090 C.ar  221  TYR221     -0.0200
     29  CD1       -1.7460   -2.0200   13.8730 C.ar  221  TYR221     -0.0009
     30  CD2       -0.1230   -1.6340   15.5820 C.ar  221  TYR221     -0.0009
     31  CE1       -1.2070   -0.9660   13.1190 C.ar  221  TYR221      0.0417
     32  CE2        0.4280   -0.5800   14.8300 C.ar  221  TYR221      0.0417
     33  CZ        -0.1290   -0.2660   13.5980 C.ar  221  TYR221      0.1957
     34  OH         0.3730    0.7840   12.8740 O.3   221  TYR221     -0.2866
     35  N          1.3660   -4.7080   17.1430 N.am  222  ALA222     -0.1966
     36  CA         2.4610   -4.3520   18.0510 C.3   222  ALA222      0.1728
     37  C          3.6630   -5.1460   17.6770 C.2   222  ALA222      0.2616
     38  O          3.8120   -6.2990   18.1250 O.2   222  ALA222     -0.2715
     39  CB         2.1300   -4.6560   19.5130 C.3   222  ALA222      0.0334
     40  N          4.5610   -4.5190   16.9270 N.am  223  ASN223     -0.1972
     41  CA         5.7710   -5.1560   16.5220 C.3   223  ASN223      0.1688
     42  C          6.6250   -5.5810   17.7430 C.2   223  ASN223      0.2292
     43  O          7.2580   -6.6110   17.7040 O.2   223  ASN223     -0.2864
     44  CB         6.6030   -4.2470   15.6080 C.3   223  ASN223      0.1181
     45  CG         7.8200   -4.9500   15.0490 C.2   223  ASN223      0.2629
     46  OD1        7.7050   -5.8880   14.2620 O.2   223  ASN223     -0.2716
     47  ND2        9.0060   -4.5180   15.4700 N.am  223  ASN223     -0.0877
     48  N          3.4690   -4.6910   12.7950 N.3   229  GLY229     -0.1210
     49  CA         3.2900   -3.2820   13.0610 C.3   229  GLY229      0.1956
     50  C          2.7690   -2.6060   11.8060 C.2   229  GLY229      0.2612
     51  O          2.2880   -3.2850   10.8770 O.2   229  GLY229     -0.2717
     52  N          2.8810   -1.2930   11.7770 N.am  230  GLY230     -0.1942
     53  CA         2.1870   -0.5050   10.7290 C.3   230  GLY230      0.2014
     54  C          2.7090   -0.8480    9.3490 C.2   230  GLY230      0.2639
     55  O          1.8930   -1.0270    8.4230 O.2   230  GLY230     -0.2714
     56  N          4.0450   -0.9540    9.1890 N.am  231  VAL231     -0.1963
     57  CA         4.5740   -1.1730    7.8190 C.3   231  VAL231      0.1727
     58  C          4.1760   -2.5590    7.3370 C.2   231  VAL231      0.2616
     59  O          3.8000   -2.7300    6.1610 O.2   231  VAL231     -0.2715
     60  CB         6.1220   -0.9420    7.6470 C.3   231  VAL231      0.0290
     61  CG1        6.4460   -0.4870    6.1720 C.3   231  VAL231      0.0023
     62  CG2        6.6490    0.1000    8.5970 C.3   231  VAL231      0.0023
     63  N          4.2340   -3.5500    8.2280 N.am  232  ALA232     -0.1977
     64  CA         3.8550   -4.9020    7.8190 C.3   232  ALA232      0.1597
     65  C          2.3780   -4.9460    7.3970 C.2   232  ALA232      0.2287
     66  O          2.0540   -5.5490    6.3940 O.2   232  ALA232     -0.2864
     67  CB         4.1450   -5.9490    8.9330 C.3   232  ALA232      0.0319
@<TRIPOS>BOND
     1    59    58    2
     2    61    60    1
     3    66    65    2
     4     4     3    2
     5    58    57    1
     6    58    63   am
     7    65    64    1
     8    60    57    1
     9    60    62    1
    10    64    63    1
    11    64    67    1
    12    57    56    1
    13     3     2    1
    14    55    54    2
    15     2     1    1
    16     2     5    1
    17    56    54   am
    18    18    17    2
    19    54    53    1
    20     5     6    1
    21    17    16    1
    22    53    52    1
    23    51    50    2
    24    19    16    1
    25    19    20    1
    26    21    20   ar
    27    16    15    1
    28    52    50   am
    29    50    49    1
    30    20    22   ar
    31    48    49    1
    32    34    33    1
    33    10     9    2
    34    31    33   ar
    35    31    29   ar
    36    33    32   ar
    37     9     8    1
    38    29    28   ar
    39    46    45    2
    40    32    30   ar
    41    45    47   am
    42    45    44    1
    43    28    30   ar
    44    28    27    1
    45     8     7    1
    46     8    11    1
    47    44    41    1
    48    11    12    1
    49    27    24    1
    50    24    23    1
    51    24    25    1
    52    41    40    1
    53    41    42    1
    54    40    37   am
    55    35    25   am
    56    35    36    1
    57    25    26    2
    58    12    14   ar
    59    12    13   ar
    60    37    36    1
    61    37    38    2
    62    43    42    2
    63    36    39    1
