@<TRIPOS>MOLECULE
tmp/2hi4A01.pdb
 165 156 0 0 0
SMALL
GASTEIGER

@<TRIPOS>ATOM
      1  N          0.4090   14.2460   10.8340 N.3    84  ILE84      -0.1231
      2  CA         0.0290   14.7310   12.1290 C.3    84  ILE84       0.1692
      3  C         -1.4290   15.1870   12.1030 C.2    84  ILE84       0.2592
      4  O         -1.8080   16.0500   11.3220 O.2    84  ILE84      -0.2718
      5  CB         1.0230   15.8550   12.5940 C.3    84  ILE84       0.0266
      6  CG1        2.4100   15.1950   12.8680 C.3    84  ILE84       0.0019
      7  CG2        0.5250   16.5340   13.7630 C.3    84  ILE84       0.0020
      8  CD1        3.5790   16.1960   13.2510 C.3    84  ILE84       0.0001
      9  N         -2.1990   14.5900   13.0100 N.am   85  THR85      -0.1953
     10  CA        -3.6400   14.8060   13.1850 C.3    85  THR85       0.1897
     11  C         -4.3760   14.9030   11.8720 C.2    85  THR85       0.2313
     12  O         -4.4250   13.9300   11.1370 O.2    85  THR85      -0.2863
     13  CB        -4.0110   16.0430   14.0760 C.3    85  THR85       0.1794
     14  OG1       -3.5120   17.2420   13.5000 O.3    85  THR85      -0.2208
     15  CG2       -3.4870   15.8760   15.5180 C.3    85  THR85       0.0378
     16  N         -2.7240   20.9390   11.7560 N.3    89  SER89      -0.1217
     17  CA        -2.3880   21.5080   13.0620 C.3    89  SER89       0.1889
     18  C         -1.7560   22.9160   12.9370 C.2    89  SER89       0.2288
     19  O         -1.1670   23.2510   11.9090 O.2    89  SER89      -0.2866
     20  CB        -1.4660   20.5530   13.8410 C.3    89  SER89       0.2089
     21  OG        -0.1750   20.4670   13.1970 O.3    89  SER89      -0.2183
     22  N          0.5290   23.9840   14.9740 N.3    91  THR91      -0.1203
     23  CA         1.9780   23.7080   15.2070 C.3    91  THR91       0.1994
     24  C          2.7830   23.2470   13.9820 C.2    91  THR91       0.2617
     25  O          3.8510   23.7920   13.6710 O.2    91  THR91      -0.2717
     26  CB         2.1520   22.5930   16.2890 C.3    91  THR91       0.1784
     27  OG1        1.3940   22.9370   17.4500 O.3    91  THR91      -0.2211
     28  CG2        3.7010   22.3800   16.6680 C.3    91  THR91       0.0376
     29  N          2.2660   22.2050   13.3320 N.am   92  PHE92      -0.1975
     30  CA         2.8840   21.5530   12.2020 C.3    92  PHE92       0.1639
     31  C          2.5430   21.8520   10.7540 C.2    92  PHE92       0.2290
     32  O          3.3270   21.5020    9.8310 O.2    92  PHE92      -0.2864
     33  CB         2.7420   20.0560   12.4340 C.3    92  PHE92       0.0560
     34  CG         3.5400   19.5750   13.5970 C.ar   92  PHE92      -0.0200
     35  CD1        2.9390   19.2890   14.8270 C.ar   92  PHE92      -0.0042
     36  CD2        4.9040   19.4620   13.4770 C.ar   92  PHE92      -0.0042
     37  CE1        3.6710   18.8850   15.9580 C.ar   92  PHE92      -0.0003
     38  CE2        5.6680   19.0570   14.5930 C.ar   92  PHE92      -0.0003
     39  CZ         5.0570   18.7660   15.8410 C.ar   92  PHE92      -0.0000
     40  N          3.0670    9.0820   24.3620 N.3   190  THR190     -0.1218
     41  CA         3.3830   10.1370   23.4480 C.3   190  THR190      0.1862
     42  C          4.8300    9.9650   22.9500 C.2   190  THR190      0.2287
     43  O          5.2430   10.6860   22.0460 O.2   190  THR190     -0.2866
     44  CB         3.2190   11.5300   24.0900 C.3   190  THR190      0.1770
     45  OG1        4.0970   11.6510   25.2120 O.3   190  THR190     -0.2211
     46  CG2        1.7090   11.7980   24.5080 C.3   190  THR190      0.0375
     47  N          4.8280    9.6350   19.4090 N.3   193  PHE193     -0.1227
     48  CA         4.6770   10.8200   18.5830 C.3   193  PHE193      0.1736
     49  C          6.1010   11.5520   18.4510 C.2   193  PHE193      0.2595
     50  O          6.6790   11.7620   17.3830 O.2   193  PHE193     -0.2718
     51  CB         3.7360   11.7910   19.2590 C.3   193  PHE193      0.0547
     52  CG         3.4500   13.0360   18.4410 C.ar  193  PHE193     -0.0202
     53  CD1        2.4490   13.0180   17.4330 C.ar  193  PHE193     -0.0042
     54  CD2        4.1820   14.2240   18.6650 C.ar  193  PHE193     -0.0042
     55  CE1        2.1960   14.1780   16.6530 C.ar  193  PHE193     -0.0003
     56  CE2        3.9440   15.4200   17.8920 C.ar  193  PHE193     -0.0003
     57  CZ         2.9550   15.4010   16.8830 C.ar  193  PHE193     -0.0000
     58  N          6.6260   11.8560   19.6110 N.am  194  VAL194     -0.1980
     59  CA         7.8420   12.6580   19.8210 C.3   194  VAL194      0.1595
     60  C          9.1330   12.1420   19.2130 C.2   194  VAL194      0.2287
     61  O          9.9820   12.9180   18.7000 O.2   194  VAL194     -0.2864
     62  CB         7.9070   12.9050   21.3690 C.3   194  VAL194      0.0276
     63  CG1        9.2500   12.7440   21.9280 C.3   194  VAL194      0.0022
     64  CG2        7.2950   14.2420   21.6470 C.3   194  VAL194      0.0022
     65  N         -0.4970    6.1940   16.4290 N.3   223  PHE223     -0.1227
     66  CA        -0.6690    7.1010   17.5270 C.3   223  PHE223      0.1736
     67  C         -1.4640    8.3020   17.0660 C.2   223  PHE223      0.2595
     68  O         -2.4360    8.7360   17.7510 O.2   223  PHE223     -0.2718
     69  CB         0.6960    7.5920   18.1060 C.3   223  PHE223      0.0547
     70  CG         0.5310    8.6540   19.1270 C.ar  223  PHE223     -0.0202
     71  CD1        0.5300    8.3330   20.5020 C.ar  223  PHE223     -0.0042
     72  CD2        0.2200    9.9790   18.7390 C.ar  223  PHE223     -0.0042
     73  CE1        0.2110    9.3240   21.4830 C.ar  223  PHE223     -0.0003
     74  CE2       -0.1080   10.9560   19.7230 C.ar  223  PHE223     -0.0003
     75  CZ        -0.1120   10.6310   21.0960 C.ar  223  PHE223     -0.0000
     76  N         -1.1060    8.8280   15.9050 N.am  224  ASN224     -0.1974
     77  CA        -1.7810   10.0040   15.3930 C.3   224  ASN224      0.1688
     78  C         -3.2770    9.7320   15.0770 C.2   224  ASN224      0.2292
     79  O         -4.1230   10.5770   15.3510 O.2   224  ASN224     -0.2864
     80  CB        -1.0470   10.5400   14.1550 C.3   224  ASN224      0.1181
     81  CG         0.1140   11.5270   14.5350 C.2   224  ASN224      0.2629
     82  OD1       -0.1440   12.7170   14.8090 O.2   224  ASN224     -0.2716
     83  ND2        1.3780   11.0300   14.5250 N.am  224  ASN224     -0.0877
     84  N         -4.9880    9.4190   18.3970 N.3   227  PHE227     -0.1241
     85  CA        -5.0570   10.7440   19.0190 C.3   227  PHE227      0.1605
     86  C         -6.2080   11.5620   18.4140 C.2   227  PHE227      0.2264
     87  O         -6.9850   12.1600   19.1270 O.2   227  PHE227     -0.2867
     88  CB        -3.7800   11.5340   18.7320 C.3   227  PHE227      0.0534
     89  CG        -3.6830   12.8420   19.4600 C.ar  227  PHE227     -0.0203
     90  CD1       -3.3100   12.8690   20.7980 C.ar  227  PHE227     -0.0042
     91  CD2       -3.9160   14.0470   18.8080 C.ar  227  PHE227     -0.0042
     92  CE1       -3.1510   14.0740   21.4970 C.ar  227  PHE227     -0.0003
     93  CE2       -3.7630   15.2810   19.4980 C.ar  227  PHE227     -0.0003
     94  CZ        -3.3620   15.2610   20.8870 C.ar  227  PHE227     -0.0000
     95  N         -6.5970   20.2370   19.6280 N.3   279  ASN279     -0.1225
     96  CA        -5.6950   19.1170   19.3700 C.3   279  ASN279      0.1785
     97  C         -4.2500   19.5620   19.6990 C.2   279  ASN279      0.2597
     98  O         -3.4870   18.8210   20.3370 O.2   279  ASN279     -0.2718
     99  CB        -5.7050   18.6790   17.9060 C.3   279  ASN279      0.1169
    100  CG        -7.0740   18.1820   17.4490 C.2   279  ASN279      0.2627
    101  OD1       -8.0170   18.1930   18.2140 O.2   279  ASN279     -0.2716
    102  ND2       -7.1740   17.7750   16.1980 N.am  279  ASN279     -0.0877
    103  N         -3.9080   20.7710   19.2990 N.am  280  ASP280     -0.1974
    104  CA        -2.5180   21.2900   19.5290 C.3   280  ASP280      0.1709
    105  C         -2.3230   21.6330   21.0170 C.2   280  ASP280      0.2293
    106  O         -1.2420   21.4050   21.5910 O.2   280  ASP280     -0.2864
    107  CB        -2.2630   22.6020   18.7620 C.3   280  ASP280      0.1436
    108  CG        -2.1940   22.4430   17.2370 C.2   280  ASP280      0.3671
    109  OD1       -1.0880   22.1520   16.7380 O.co2 280  ASP280     -0.2456
    110  OD2       -3.2330   22.6640   16.5320 O.co2 280  ASP280     -0.2456
    111  N         -2.2270   18.2530   22.9890 N.3   283  GLY283     -0.1210
    112  CA        -1.0290   17.4960   22.6540 C.3   283  GLY283      0.1956
    113  C          0.2640   18.0780   23.2350 C.2   283  GLY283      0.2611
    114  O          0.9750   17.4050   23.9860 O.2   283  GLY283     -0.2717
    115  N          0.5290   19.3300   22.8770 N.am  284  ALA284     -0.1979
    116  CA         1.7220   20.0610   23.3200 C.3   284  ALA284      0.1597
    117  C          1.6870   20.2850   24.8260 C.2   284  ALA284      0.2287
    118  O          2.6760   20.0360   25.5190 O.2   284  ALA284     -0.2864
    119  CB         1.8310   21.4250   22.5900 C.3   284  ALA284      0.0319
    120  N          2.2680   16.7500   26.8680 N.3   287  ASP287     -0.1225
    121  CA         3.5730   16.1340   26.7660 C.3   287  ASP287      0.1805
    122  C          4.7040   16.9130   27.3720 C.2   287  ASP287      0.2598
    123  O          5.5170   16.3400   28.0900 O.2   287  ASP287     -0.2718
    124  CB         3.8890   15.7990   25.3200 C.3   287  ASP287      0.1424
    125  CG         5.2250   15.0230   25.1560 C.2   287  ASP287      0.3668
    126  OD1        6.2040   15.6200   24.6830 O.co2 287  ASP287     -0.2456
    127  OD2        5.3080   13.8280   25.5050 O.co2 287  ASP287     -0.2456
    128  N          4.7700   18.2010   27.0620 N.am  288  THR288     -0.1953
    129  CA         5.8460   19.0830   27.5530 C.3   288  THR288      0.1897
    130  C          5.9400   19.1790   29.0470 C.2   288  THR288      0.2313
    131  O          7.0120   18.9830   29.6200 O.2   288  THR288     -0.2863
    132  CB         5.6930   20.5440   27.0450 C.3   288  THR288      0.1794
    133  OG1        4.3820   20.9850   27.3110 O.3   288  THR288     -0.2208
    134  CG2        5.9430   20.6540   25.5850 C.3   288  THR288      0.0378
    135  N         13.6960   20.1190   25.0660 N.3   349  LEU349     -0.1245
    136  CA        13.3010   20.5050   23.7010 C.3   349  LEU349      0.1561
    137  C         14.6610   20.8390   23.1200 C.2   349  LEU349      0.2260
    138  O         15.0590   22.0100   23.1140 O.2   349  LEU349     -0.2867
    139  CB        12.4340   21.7710   23.6360 C.3   349  LEU349      0.0270
    140  CG        11.0570   21.0630   23.6350 C.3   349  LEU349      0.0019
    141  CD1       10.3570   21.2790   24.8820 C.3   349  LEU349      0.0001
    142  CD2       10.2920   21.4360   22.4450 C.3   349  LEU349      0.0001
    143  N         10.5960   23.2570   16.9400 N.3   353  ILE353     -0.1245
    144  CA        10.0500   22.5470   15.8160 C.3   353  ILE353      0.1561
    145  C         10.7400   23.2380   14.6000 C.2   353  ILE353      0.2260
    146  O         10.9980   24.4560   14.6390 O.2   353  ILE353     -0.2867
    147  CB         8.5120   22.7550   15.8050 C.3   353  ILE353      0.0252
    148  CG1        7.9520   22.0060   17.0540 C.3   353  ILE353      0.0019
    149  CG2        8.0120   22.3590   14.5080 C.3   353  ILE353      0.0019
    150  CD1        6.5610   21.5740   17.0540 C.3   353  ILE353      0.0001
    151  N         11.3770   15.0920   19.9190 N.3   464  LEU464     -0.1231
    152  CA        10.9080   16.4490   19.9190 C.3   464  LEU464      0.1693
    153  C         11.0260   16.8950   21.3650 C.2   464  LEU464      0.2592
    154  O         11.3880   18.0380   21.6500 O.2   464  LEU464     -0.2718
    155  CB         9.4370   16.5230   19.4320 C.3   464  LEU464      0.0284
    156  CG         8.7870   17.9000   19.6080 C.3   464  LEU464      0.0019
    157  CD1        9.7030   19.0040   19.0430 C.3   464  LEU464      0.0001
    158  CD2        7.4120   17.9080   18.8700 C.3   464  LEU464      0.0001
    159  N         10.5890   16.0240   22.2800 N.am  465  THR465     -0.1953
    160  CA        10.7970   16.2750   23.7090 C.3   465  THR465      0.1897
    161  C         11.6550   15.0650   24.0520 C.2   465  THR465      0.2313
    162  O         11.4190   13.9190   23.6050 O.2   465  THR465     -0.2863
    163  CB         9.4560   16.3790   24.6330 C.3   465  THR465      0.1794
    164  OG1        8.6060   15.2180   24.4710 O.3   465  THR465     -0.2208
    165  CG2        8.7060   17.6480   24.2940 C.3   465  THR465      0.0378
@<TRIPOS>BOND
     1    32    31    2
     2    31    30    1
     3     1     2    1
     4    12    11    2
     5     4     3    2
     6    16    17    1
     7    11    10    1
     8    19    18    2
     9     3     2    1
    10     3     9   am
    11     2     5    1
    12    30    33    1
    13    30    29    1
    14    33    34    1
    15     5     6    1
    16     5     7    1
    17     6     8    1
    18    18    17    1
    19     9    10    1
    20    17    20    1
    21    10    13    1
    22    21    20    1
    23    29    24   am
    24    36    34   ar
    25    36    38   ar
    26    14    13    1
    27    34    35   ar
    28    25    24    2
    29    24    23    1
    30    13    15    1
    31    80    81    1
    32    80    77    1
    33   149   147    1
    34    83    81   am
    35    81    82    2
    36    38    39   ar
    37   145   146    2
    38   145   144    1
    39    35    37   ar
    40    22    23    1
    41    78    79    2
    42    78    77    1
    43    23    26    1
    44    77    76    1
    45   147   144    1
    46   147   148    1
    47   144   143    1
    48    39    37   ar
    49    76    67   am
    50   102   100   am
    51    26    28    1
    52    26    27    1
    53    65    66    1
    54   110   108   ar
    55    55    57   ar
    56    55    53   ar
    57   109   108   ar
    58    57    56   ar
    59   148   150    1
    60    67    66    1
    61    67    68    2
    62   108   107    1
    63    50    49    2
    64    53    52   ar
    65   100    99    1
    66   100   101    2
    67    66    69    1
    68    56    54   ar
    69    99    96    1
    70    69    70    1
    71    84    85    1
    72    86    85    1
    73    86    87    2
    74    52    54   ar
    75    52    51    1
    76    49    48    1
    77    49    58   am
    78    48    51    1
    79    48    47    1
    80    61    60    2
    81    88    85    1
    82    88    89    1
    83    72    70   ar
    84    72    74   ar
    85   107   104    1
    86    91    89   ar
    87    91    93   ar
    88   158   156    1
    89   157   156    1
    90    70    71   ar
    91    60    59    1
    92   103   104    1
    93   103    97   am
    94    96    95    1
    95    96    97    1
    96   155   156    1
    97   155   152    1
    98    89    90   ar
    99    93    94   ar
   100   104   105    1
   101    58    59    1
   102    97    98    2
   103    74    75   ar
   104    59    62    1
   105   151   152    1
   106   152   153    1
   107    71    73   ar
   108    90    92   ar
   109    94    92   ar
   110   105   106    2
   111    75    73   ar
   112   153   154    2
   113   153   159   am
   114    62    64    1
   115    62    63    1
   116    43    42    2
   117   159   160    1
   118   142   140    1
   119   119   116    1
   120   112   111    1
   121   112   113    1
   122   115   113   am
   123   115   116    1
   124    42    41    1
   125   138   137    2
   126   137   136    1
   127   113   114    2
   128   116   117    1
   129    41    44    1
   130    41    40    1
   131   162   161    2
   132   140   139    1
   133   140   141    1
   134   139   136    1
   135   136   135    1
   136   160   161    1
   137   160   163    1
   138    44    46    1
   139    44    45    1
   140   165   163    1
   141   164   163    1
   142   126   125   ar
   143   117   118    2
   144   125   124    1
   145   125   127   ar
   146   124   121    1
   147   134   132    1
   148   121   120    1
   149   121   122    1
   150   132   133    1
   151   132   129    1
   152   128   122   am
   153   128   129    1
   154   122   123    2
   155   129   130    1
   156   130   131    2
