@<TRIPOS>MOLECULE
tmp/2himD00.pdb
 100 95 0 0 0
SMALL
GASTEIGER

@<TRIPOS>ATOM
      1  N        -59.2380  -20.9460   23.5080 N.3    19  GLY19      -0.1210
      2  CA       -58.4780  -19.7960   23.0610 C.3    19  GLY19       0.1956
      3  C        -58.3960  -19.6610   21.5520 C.2    19  GLY19       0.2613
      4  O        -58.7420  -20.5770   20.8040 O.2    19  GLY19      -0.2717
      5  N        -57.9220  -18.5060   21.1050 N.am   20  THR20      -0.1938
      6  CA       -57.7770  -18.2240   19.6810 C.3    20  THR20       0.2028
      7  C        -56.9540  -19.2570   18.9090 C.2    20  THR20       0.2642
      8  O        -57.2810  -19.6160   17.7760 O.2    20  THR20      -0.2714
      9  CB       -57.1060  -16.8500   19.4610 C.3    20  THR20       0.1808
     10  OG1      -57.9300  -15.8130   20.0160 O.3    20  THR20      -0.2208
     11  CG2      -56.9230  -16.5770   17.9740 C.3    20  THR20       0.0379
     12  N        -55.8790  -19.7230   19.5280 N.am   21  ILE21      -0.1977
     13  CA       -54.9850  -20.6680   18.8810 C.3    21  ILE21       0.1596
     14  C        -55.6740  -21.8610   18.2170 C.2    21  ILE21       0.2287
     15  O        -55.2310  -22.3270   17.1630 O.2    21  ILE21      -0.2864
     16  CB       -53.9050  -21.1700   19.8750 C.3    21  ILE21       0.0276
     17  CG1      -52.8420  -21.9770   19.1240 C.3    21  ILE21       0.0022
     18  CG2      -54.5450  -22.0000   20.9730 C.3    21  ILE21       0.0022
     19  CD1      -51.5840  -22.2390   19.9340 C.3    21  ILE21       0.0001
     20  N        -59.0150  -21.9310   17.2120 N.3    23  MET23      -0.1245
     21  CA       -60.2500  -21.5440   16.5370 C.3    23  MET23       0.1570
     22  C        -60.1740  -21.5640   15.0120 C.2    23  MET23       0.2261
     23  O        -59.1310  -21.8640   14.4320 O.2    23  MET23      -0.2867
     24  CB       -60.6810  -20.1550   17.0100 C.3    23  MET23       0.0387
     25  CG       -61.1890  -20.1320   18.4440 C.3    23  MET23       0.0595
     26  SD       -61.3180  -18.4650   19.1090 S.3    23  MET23      -0.1393
     27  CE       -62.4860  -17.7310   17.9700 C.3    23  MET23       0.0692
     28  N        -63.5120  -19.3920   25.3600 N.3    60  ASP60      -0.1225
     29  CA       -62.8770  -18.1360   24.9790 C.3    60  ASP60       0.1805
     30  C        -62.4040  -17.7040   26.3640 C.2    60  ASP60       0.2598
     31  O        -63.1780  -17.7750   27.3200 O.2    60  ASP60      -0.2718
     32  CB       -63.9090  -17.1290   24.4600 C.3    60  ASP60       0.1424
     33  CG       -64.3000  -17.3760   23.0140 C.2    60  ASP60       0.3668
     34  OD1      -65.2360  -16.7040   22.5350 O.co2  60  ASP60      -0.2456
     35  OD2      -63.6700  -18.2300   22.3570 O.co2  60  ASP60      -0.2456
     36  N        -61.1590  -17.2670   26.4960 N.am   61  SER61      -0.1938
     37  CA       -60.6810  -16.8900   27.8230 C.3    61  SER61       0.2055
     38  C        -61.4420  -15.7160   28.4270 C.2    61  SER61       0.2643
     39  O        -61.3690  -15.4870   29.6260 O.2    61  SER61      -0.2714
     40  CB       -59.1750  -16.5800   27.8040 C.3    61  SER61       0.2130
     41  OG       -58.9040  -15.3010   27.2730 O.3    61  SER61      -0.2179
     42  N        -62.1770  -14.9740   27.6060 N.am   62  SER62      -0.1949
     43  CA       -62.9390  -13.8430   28.1250 C.3    62  SER62       0.1924
     44  C        -64.1270  -14.3180   28.9630 C.2    62  SER62       0.2314
     45  O        -64.7170  -13.5340   29.7060 O.2    62  SER62      -0.2863
     46  CB       -63.4320  -12.9510   26.9800 C.3    62  SER62       0.2116
     47  OG       -64.2880  -13.6630   26.1030 O.3    62  SER62      -0.2180
     48  N        -54.1650  -21.4640   26.1450 N.3    90  HIS90      -0.1226
     49  CA       -55.1900  -20.5790   26.6840 C.3    90  HIS90       0.1752
     50  C        -55.4400  -19.3660   25.7890 C.2    90  HIS90       0.2597
     51  O        -54.5840  -18.9900   24.9890 O.2    90  HIS90      -0.2718
     52  CB       -54.6430  -20.1290   28.0510 C.3    90  HIS90       0.0759
     53  CG       -55.6450  -19.5140   28.9760 C.ar   90  HIS90       0.0818
     54  ND1      -56.1260  -18.2310   28.8160 N.ar   90  HIS90      -0.2268
     55  CD2      -56.1620  -19.9650   30.1440 C.ar   90  HIS90       0.1154
     56  CE1      -56.8870  -17.9160   29.8490 C.ar   90  HIS90       0.1986
     57  NE2      -56.9240  -18.9510   30.6700 N.ar   90  HIS90      -0.2212
     58  N        -56.6110  -18.7580   25.9340 N.am   91  GLY91      -0.1942
     59  CA       -56.9130  -17.5660   25.1610 C.3    91  GLY91       0.2014
     60  C        -56.0720  -16.4390   25.7330 C.2    91  GLY91       0.2640
     61  O        -55.7400  -16.4570   26.9180 O.2    91  GLY91      -0.2714
     62  N        -55.7180  -15.4550   24.9150 N.am   92  THR92      -0.1936
     63  CA       -54.8880  -14.3560   25.4050 C.3    92  THR92       0.2028
     64  C        -55.5810  -13.3520   26.3350 C.2    92  THR92       0.2642
     65  O        -54.9540  -12.8390   27.2660 O.2    92  THR92      -0.2714
     66  CB       -54.2540  -13.5730   24.2310 C.3    92  THR92       0.1808
     67  OG1      -55.2910  -13.0600   23.3860 O.3    92  THR92      -0.2208
     68  CG2      -53.3380  -14.4870   23.4140 C.3    92  THR92       0.0379
     69  N        -56.8640  -13.0840   26.1060 N.am   93  ASP93      -0.1971
     70  CA       -57.5900  -12.1010   26.9180 C.3    93  ASP93       0.1709
     71  C        -57.3820  -12.1720   28.4390 C.2    93  ASP93       0.2293
     72  O        -57.1970  -11.1380   29.0890 O.2    93  ASP93      -0.2864
     73  CB       -59.0910  -12.1440   26.5960 C.3    93  ASP93       0.1436
     74  CG       -59.4420  -11.3790   25.3170 C.2    93  ASP93       0.3671
     75  OD1      -58.5320  -10.8110   24.6830 O.co2  93  ASP93      -0.2456
     76  OD2      -60.6330  -11.3390   24.9500 O.co2  93  ASP93      -0.2456
     77  N        -52.0240  -17.7540   21.3210 N.3   118  SER118     -0.1202
     78  CA       -51.6930  -16.9790   20.1380 C.3   118  SER118      0.2020
     79  C        -52.6940  -15.8750   19.8510 C.2   118  SER118      0.2618
     80  O        -53.8450  -15.9320   20.2790 O.2   118  SER118     -0.2717
     81  CB       -51.6040  -17.9010   18.9210 C.3   118  SER118      0.2103
     82  OG       -52.8750  -18.4380   18.6060 O.3   118  SER118     -0.2182
     83  N        -52.2290  -14.8660   19.1190 N.am  119  GLN119     -0.1979
     84  CA       -53.0580  -13.7360   18.7290 C.3   119  GLN119      0.1601
     85  C        -53.8700  -14.0810   17.4820 C.2   119  GLN119      0.2287
     86  O        -54.9270  -13.5090   17.2510 O.2   119  GLN119     -0.2864
     87  CB       -52.1760  -12.5210   18.4480 C.3   119  GLN119      0.0394
     88  CG       -51.6060  -11.8730   19.6970 C.3   119  GLN119      0.0908
     89  CD       -52.6060  -10.9500   20.3770 C.2   119  GLN119      0.2608
     90  OE1      -53.6190  -11.3980   20.9250 O.2   119  GLN119     -0.2717
     91  NE2      -52.3280   -9.6510   20.3360 N.am  119  GLN119     -0.0878
     92  N        -51.4870   -8.4150   29.7340 N.3   164  LYS164     -0.1245
     93  CA       -51.6130   -8.2810   28.2880 C.3   164  LYS164      0.1561
     94  C        -51.5620   -6.7770   28.0570 C.2   164  LYS164      0.2260
     95  O        -52.5050   -6.0660   28.3870 O.2   164  LYS164     -0.2867
     96  CB       -52.9430   -8.8490   27.8010 C.3   164  LYS164      0.0271
     97  CG       -53.0740   -8.8620   26.2930 C.3   164  LYS164      0.0035
     98  CD       -54.3610   -9.5500   25.8760 C.3   164  LYS164      0.0206
     99  CE       -54.5130   -9.5740   24.3680 C.3   164  LYS164      0.1093
    100  NZ       -55.7780  -10.2620   23.9920 N.3   164  LYS164     -0.1314
@<TRIPOS>BOND
     1    23    22    2
     2    22    21    1
     3    21    24    1
     4    21    20    1
     5    24    25    1
     6    15    14    2
     7    86    85    2
     8    85    84    1
     9     8     7    2
    10    27    26    1
    11    11     9    1
    12    14    13    1
    13    25    26    1
    14    87    84    1
    15    87    88    1
    16    82    81    1
    17    84    83    1
    18    13    12    1
    19    13    16    1
    20     7    12   am
    21     7     6    1
    22    81    78    1
    23    83    79   am
    24    17    16    1
    25    17    19    1
    26     9     6    1
    27     9    10    1
    28     6     5    1
    29    88    89    1
    30    79    78    1
    31    79    80    2
    32    16    18    1
    33    78    77    1
    34    91    89   am
    35    89    90    2
    36     4     3    2
    37     5     3   am
    38     3     2    1
    39    35    33   ar
    40    34    33   ar
    41    33    32    1
    42     2     1    1
    43    67    66    1
    44    68    66    1
    45   100    99    1
    46    66    63    1
    47    99    98    1
    48    32    29    1
    49    75    74   ar
    50    62    63    1
    51    62    60   am
    52    76    74   ar
    53    29    28    1
    54    29    30    1
    55    51    50    2
    56    59    60    1
    57    59    58    1
    58    74    73    1
    59    63    64    1
    60    60    61    2
    61    50    58   am
    62    50    49    1
    63    98    97    1
    64    47    46    1
    65    69    64   am
    66    69    70    1
    67    48    49    1
    68    97    96    1
    69    64    65    2
    70    30    36   am
    71    30    31    2
    72    36    37    1
    73    73    70    1
    74    49    52    1
    75    70    71    1
    76    46    43    1
    77    41    40    1
    78    42    43    1
    79    42    38   am
    80    96    93    1
    81    40    37    1
    82    37    38    1
    83    52    53    1
    84    94    93    1
    85    94    95    2
    86    43    44    1
    87    93    92    1
    88    38    39    2
    89    71    72    2
    90    54    53   ar
    91    54    56   ar
    92    44    45    2
    93    53    55   ar
    94    56    57   ar
    95    55    57   ar
