@<TRIPOS>MOLECULE
tmp/2himD01.pdb
 84 80 0 0 0
SMALL
GASTEIGER

@<TRIPOS>ATOM
      1  N        -48.9940   -9.0910   32.1550 N.3   163  ALA163     -0.1245
      2  CA       -50.2440   -8.4230   31.8220 C.3   163  ALA163      0.1562
      3  C        -50.2930   -8.3160   30.3070 C.2   163  ALA163      0.2260
      4  O        -49.2530   -8.1760   29.6610 O.2   163  ALA163     -0.2867
      5  CB       -50.2910   -7.0260   32.4460 C.3   163  ALA163      0.0290
      6  N        -44.0100   -5.5740   33.1190 N.3   176  PRO176     -0.2116
      7  CA       -43.5790   -4.2170   33.4600 C.3   176  PRO176      0.1372
      8  C        -42.6110   -3.9990   34.6150 C.2   176  PRO176      0.2244
      9  O        -41.7780   -3.0960   34.5450 O.2   176  PRO176     -0.2868
     10  CB       -44.9030   -3.4770   33.6520 C.3   176  PRO176      0.0268
     11  CG       -45.8010   -4.5390   34.1680 C.3   176  PRO176      0.0207
     12  CD       -45.4710   -5.7040   33.2700 C.3   176  PRO176      0.0892
     13  N        -57.1740    1.2450   41.9370 N.3   241  ARG241     -0.1245
     14  CA       -56.2030    1.5340   40.8920 C.3   241  ARG241      0.1563
     15  C        -55.9680    3.0370   40.9960 C.2   241  ARG241      0.2260
     16  O        -56.5910    3.8220   40.2780 O.2   241  ARG241     -0.2867
     17  CB       -56.7690    1.1880   39.5140 C.3   241  ARG241      0.0307
     18  CG       -57.0490   -0.2910   39.2990 C.3   241  ARG241      0.0489
     19  CD       -57.5140   -0.5550   37.8670 C.3   241  ARG241      0.2205
     20  NE       -56.4970   -0.1790   36.8850 N.pl3 241  ARG241     -0.0865
     21  CZ       -56.6590    0.7550   35.9500 C.cat 241  ARG241      0.5346
     22  NH1      -55.6730    1.0240   35.1040 N.pl3 241  ARG241      0.1354
     23  NH2      -57.8030    1.4240   35.8550 N.pl3 241  ARG241      0.1354
     24  N        -51.0670    0.8810   41.6780 N.3   272  THR272     -0.1203
     25  CA       -50.9340    2.0010   40.7620 C.3   272  THR272      0.1994
     26  C        -51.6760    1.6180   39.4870 C.2   272  THR272      0.2618
     27  O        -51.6540    0.4480   39.0800 O.2   272  THR272     -0.2717
     28  CB       -49.4710    2.3030   40.4010 C.3   272  THR272      0.1784
     29  OG1      -49.4410    3.3560   39.4310 O.3   272  THR272     -0.2211
     30  CG2      -48.7890    1.0800   39.8120 C.3   272  THR272      0.0376
     31  N        -52.3490    2.5900   38.8750 N.am  273  GLN273     -0.1965
     32  CA       -53.0780    2.3450   37.6330 C.3   273  GLN273      0.1733
     33  C        -52.0900    2.4120   36.4650 C.2   273  GLN273      0.2616
     34  O        -52.4100    2.0480   35.3340 O.2   273  GLN273     -0.2715
     35  CB       -54.2200    3.3670   37.4610 C.3   273  GLN273      0.0408
     36  CG       -53.7920    4.8230   37.3100 C.3   273  GLN273      0.0908
     37  CD       -54.9820    5.7820   37.2290 C.2   273  GLN273      0.2608
     38  OE1      -54.9810    6.7230   36.4310 O.2   273  GLN273     -0.2717
     39  NE2      -55.9930    5.5560   38.0660 N.am  273  GLN273     -0.0878
     40  N        -50.8700    2.8580   36.7600 N.am  274  CYS274     -0.1954
     41  CA       -49.8150    2.9530   35.7550 C.3   274  CYS274      0.1843
     42  C        -49.3550    1.5620   35.3090 C.2   274  CYS274      0.2625
     43  O        -49.5410    0.5830   36.0280 O.2   274  CYS274     -0.2714
     44  CB       -48.6210    3.7180   36.3240 C.3   274  CYS274      0.0997
     45  SG       -49.0280    5.3890   36.8790 S.3   274  CYS274     -0.0797
     46  N        -48.7450    1.4850   34.1270 N.am  275  MET275     -0.1977
     47  CA       -48.2520    0.2140   33.5920 C.3   275  MET275      0.1605
     48  C        -47.1130   -0.3240   34.4590 C.2   275  MET275      0.2287
     49  O        -47.0290   -1.5240   34.7140 O.2   275  MET275     -0.2864
     50  CB       -47.7550    0.4050   32.1580 C.3   275  MET275      0.0413
     51  CG       -47.5170   -0.8850   31.3930 C.3   275  MET275      0.0598
     52  SD       -49.0240   -1.8790   31.2220 S.3   275  MET275     -0.1393
     53  CE       -48.5040   -3.4050   32.0000 C.3   275  MET275      0.0692
     54  N        -47.3000   -4.7660   42.4830 N.3   294  MET294     -0.1230
     55  CA       -48.1200   -5.8460   41.9380 C.3   294  MET294      0.1702
     56  C        -49.0510   -5.3740   40.8320 C.2   294  MET294      0.2593
     57  O        -49.5090   -4.2300   40.8240 O.2   294  MET294     -0.2718
     58  CB       -48.9820   -6.4910   43.0310 C.3   294  MET294      0.0401
     59  CG       -48.2220   -7.2810   44.0750 C.3   294  MET294      0.0596
     60  SD       -49.3650   -8.3110   45.0370 S.3   294  MET294     -0.1393
     61  CE       -50.0970   -7.0740   46.1320 C.3   294  MET294      0.0692
     62  N        -49.3330   -6.2760   39.8990 N.am  295  THR295     -0.1939
     63  CA       -50.2530   -5.9970   38.8040 C.3   295  THR295      0.2028
     64  C        -51.6540   -6.2410   39.3700 C.2   295  THR295      0.2642
     65  O        -51.8040   -6.8640   40.4240 O.2   295  THR295     -0.2714
     66  CB       -50.0600   -7.0050   37.6660 C.3   295  THR295      0.1808
     67  OG1      -50.2130   -8.3220   38.2060 O.3   295  THR295     -0.2208
     68  CG2      -48.6660   -6.8770   37.0450 C.3   295  THR295      0.0379
     69  N        -52.6760   -5.7630   38.6710 N.am  296  VAL296     -0.1963
     70  CA       -54.0530   -5.9840   39.1020 C.3   296  VAL296      0.1727
     71  C        -54.3250   -7.4810   39.0030 C.2   296  VAL296      0.2616
     72  O        -55.0340   -8.0570   39.8300 O.2   296  VAL296     -0.2715
     73  CB       -55.0500   -5.2310   38.1970 C.3   296  VAL296      0.0290
     74  CG1      -56.4820   -5.6860   38.4950 C.3   296  VAL296      0.0023
     75  CG2      -54.9190   -3.7290   38.4320 C.3   296  VAL296      0.0023
     76  N        -53.7460   -8.1060   37.9810 N.am  297  GLU297     -0.1977
     77  CA       -53.9100   -9.5400   37.7770 C.3   297  GLU297      0.1602
     78  C        -53.3780  -10.3190   38.9790 C.2   297  GLU297      0.2287
     79  O        -54.0450  -11.2150   39.4960 O.2   297  GLU297     -0.2864
     80  CB       -53.1730   -9.9810   36.5120 C.3   297  GLU297      0.0415
     81  CG       -53.8130   -9.5250   35.2050 C.3   297  GLU297      0.1163
     82  CD       -53.3050   -8.1740   34.7130 C.2   297  GLU297      0.3649
     83  OE1      -53.4680   -7.8920   33.5090 O.co2 297  GLU297     -0.2457
     84  OE2      -52.7550   -7.3900   35.5140 O.co2 297  GLU297     -0.2457
@<TRIPOS>BOND
     1     4     3    2
     2     3     2    1
     3    52    51    1
     4    52    53    1
     5    51    50    1
     6     2     1    1
     7     2     5    1
     8    50    47    1
     9     6    12    1
    10     6     7    1
    11    12    11    1
    12     7    10    1
    13     7     8    1
    14    83    82   ar
    15    47    46    1
    16    47    48    1
    17    10    11    1
    18    46    42   am
    19    48    49    2
    20     9     8    2
    21    82    81    1
    22    82    84   ar
    23    22    21    1
    24    81    80    1
    25    42    41    1
    26    42    43    2
    27    34    33    2
    28    41    44    1
    29    41    40    1
    30    23    21    1
    31    21    20    2
    32    44    45    1
    33    38    37    2
    34    33    40   am
    35    33    32    1
    36    80    77    1
    37    20    19    1
    38    68    66    1
    39    37    36    1
    40    37    39   am
    41    36    35    1
    42    35    32    1
    43    32    31    1
    44    66    67    1
    45    66    63    1
    46    77    76    1
    47    77    78    1
    48    19    18    1
    49    76    71   am
    50    73    75    1
    51    73    74    1
    52    73    70    1
    53    69    70    1
    54    69    64   am
    55    63    64    1
    56    63    62    1
    57    31    26   am
    58    78    79    2
    59    71    70    1
    60    71    72    2
    61    27    26    2
    62    18    17    1
    63    64    65    2
    64    29    28    1
    65    26    25    1
    66    17    14    1
    67    30    28    1
    68    62    56   am
    69    16    15    2
    70    28    25    1
    71    25    24    1
    72    57    56    2
    73    56    55    1
    74    14    15    1
    75    14    13    1
    76    55    54    1
    77    55    58    1
    78    58    59    1
    79    59    60    1
    80    60    61    1
