@<TRIPOS>MOLECULE
tmp/2hitA10.pdb
 85 84 0 0 0
SMALL
GASTEIGER

@<TRIPOS>ATOM
      1  N         12.1340   70.3890   38.0970 N.3    49  ILE49      -0.1245
      2  CA        13.5190   70.8360   37.9830 C.3    49  ILE49       0.1561
      3  C         14.3870   70.0680   38.9920 C.2    49  ILE49       0.2260
      4  O         15.3650   69.4260   38.5920 O.2    49  ILE49      -0.2867
      5  CB        13.6750   72.3350   38.2200 C.3    49  ILE49       0.0252
      6  CG1       13.1010   73.1390   37.0330 C.3    49  ILE49       0.0019
      7  CG2       15.1320   72.6990   38.5210 C.3    49  ILE49       0.0019
      8  CD1       12.6820   74.5890   37.4350 C.3    49  ILE49       0.0001
      9  N         24.3550   71.3990   41.5640 N.3    60  ASN60      -0.1226
     10  CA        24.9110   72.7490   41.5620 C.3    60  ASN60       0.1770
     11  C         24.0010   73.6700   40.7590 C.2    60  ASN60       0.2439
     12  O         23.6190   73.3840   39.6270 O.2    60  ASN60      -0.2733
     13  CB        26.3610   72.7890   41.0170 C.3    60  ASN60       0.1168
     14  CG        27.0790   74.1050   41.3460 C.2    60  ASN60       0.2627
     15  OD1       26.7150   75.1970   40.8410 O.2    60  ASN60      -0.2716
     16  ND2       28.0830   74.0140   42.2190 N.am   60  ASN60      -0.0877
     17  N         23.6410   74.7850   41.3560 N.am   61  PRO61      -0.2718
     18  CA        22.7220   75.6740   40.6610 C.3    61  PRO61       0.1535
     19  C         23.3400   76.3060   39.3930 C.2    61  PRO61       0.2598
     20  O         22.6030   76.7000   38.4780 O.2    61  PRO61      -0.2715
     21  CB        22.3770   76.7190   41.7350 C.3    61  PRO61       0.0310
     22  CG        23.5290   76.7000   42.6980 C.3    61  PRO61       0.0237
     23  CD        24.0290   75.2840   42.6910 C.3    61  PRO61       0.0939
     24  N         24.6740   76.4010   39.3570 N.am   62  GLN62      -0.1978
     25  CA        25.4070   76.8320   38.1540 C.3    62  GLN62       0.1601
     26  C         25.6560   75.7040   37.1400 C.2    62  GLN62       0.2287
     27  O         26.1900   75.9750   36.0580 O.2    62  GLN62      -0.2864
     28  CB        26.7480   77.4460   38.5350 C.3    62  GLN62       0.0394
     29  CG        26.6090   78.7700   39.2490 C.3    62  GLN62       0.0908
     30  CD        27.9000   79.5490   39.2270 C.2    62  GLN62       0.2608
     31  OE1       27.9650   80.6380   38.6590 O.2    62  GLN62      -0.2717
     32  NE2       28.9480   78.9830   39.8110 N.am   62  GLN62      -0.0878
     33  N         22.9520   72.8380   37.0690 N.3    64  ILE64      -0.1245
     34  CA        21.6420   72.2790   36.7360 C.3    64  ILE64       0.1561
     35  C         21.0880   72.8750   35.4450 C.2    64  ILE64       0.2260
     36  O         21.0400   74.0910   35.2900 O.2    64  ILE64      -0.2867
     37  CB        20.6130   72.5540   37.8330 C.3    64  ILE64       0.0252
     38  CG1       20.9340   71.7530   39.1010 C.3    64  ILE64       0.0019
     39  CG2       19.1970   72.2040   37.3190 C.3    64  ILE64       0.0019
     40  CD1       20.4320   72.4000   40.3800 C.3    64  ILE64       0.0001
     41  N         17.8600   72.1550   32.3810 N.3    66  VAL66      -0.1245
     42  CA        16.7940   71.3250   31.8360 C.3    66  VAL66       0.1561
     43  C         16.6480   71.6870   30.3770 C.2    66  VAL66       0.2260
     44  O         16.1610   72.7820   30.0290 O.2    66  VAL66      -0.2867
     45  CB        15.4240   71.5470   32.5440 C.3    66  VAL66       0.0252
     46  CG1       14.4400   70.4160   32.1550 C.3    66  VAL66       0.0019
     47  CG2       15.5970   71.6630   34.0810 C.3    66  VAL66       0.0019
     48  N         16.6880   75.6850   30.3120 N.3   148  TYR148     -0.1227
     49  CA        16.6490   76.3770   31.6150 C.3   148  TYR148      0.1736
     50  C         17.9010   76.1050   32.4000 C.2   148  TYR148      0.2596
     51  O         17.9870   75.1400   33.1380 O.2   148  TYR148     -0.2718
     52  CB        15.3730   76.0650   32.4340 C.3   148  TYR148      0.0548
     53  CG        14.0980   76.2870   31.6640 C.ar  148  TYR148     -0.0200
     54  CD1       13.9660   77.3800   30.8330 C.ar  148  TYR148     -0.0009
     55  CD2       13.0150   75.3920   31.7610 C.ar  148  TYR148     -0.0009
     56  CE1       12.8110   77.6040   30.1250 C.ar  148  TYR148      0.0417
     57  CE2       11.8300   75.6020   31.0290 C.ar  148  TYR148      0.0417
     58  CZ        11.7490   76.7310   30.2220 C.ar  148  TYR148      0.1957
     59  OH        10.6430   77.0280   29.4800 O.3   148  TYR148     -0.2866
     60  N         18.8730   76.9810   32.2200 N.am  149  GLY149     -0.1942
     61  CA        20.0640   76.9340   33.0510 C.3   149  GLY149      0.2014
     62  C         20.7800   78.2590   33.0830 C.2   149  GLY149      0.2639
     63  O         20.7820   78.9850   32.0830 O.2   149  GLY149     -0.2714
     64  N         21.4000   78.5590   34.2230 N.am  150  ILE150     -0.1963
     65  CA        22.0080   79.8490   34.4410 C.3   150  ILE150      0.1727
     66  C         22.9380   80.1700   33.3150 C.2   150  ILE150      0.2616
     67  O         22.8020   81.2280   32.6830 O.2   150  ILE150     -0.2715
     68  CB        22.6990   79.9260   35.8060 C.3   150  ILE150      0.0290
     69  CG1       21.6110   80.1660   36.8930 C.3   150  ILE150      0.0022
     70  CG2       23.7500   81.0480   35.8070 C.3   150  ILE150      0.0023
     71  CD1       21.8320   79.4790   38.2300 C.3   150  ILE150      0.0001
     72  N         23.8340   79.2370   33.0080 N.am  151  TRP151     -0.1974
     73  CA        24.7890   79.4640   31.9200 C.3   151  TRP151      0.1640
     74  C         24.3140   78.8840   30.6120 C.2   151  TRP151      0.2290
     75  O         24.4870   79.4970   29.5380 O.2   151  TRP151     -0.2864
     76  CB        26.1870   78.9740   32.2830 C.3   151  TRP151      0.0576
     77  CG        26.6690   79.6750   33.4700 C.ar  151  TRP151      0.0006
     78  CD1       26.6360   79.2210   34.7390 C.ar  151  TRP151      0.0946
     79  CD2       27.1640   81.0090   33.5330 C.ar  151  TRP151      0.0152
     80  NE1       27.1340   80.1720   35.6010 N.ar  151  TRP151     -0.2442
     81  CE2       27.4560   81.2830   34.8820 C.ar  151  TRP151      0.0810
     82  CE3       27.4240   81.9910   32.5750 C.ar  151  TRP151      0.0012
     83  CZ2       27.9840   82.4900   35.2990 C.ar  151  TRP151      0.0191
     84  CZ3       27.9680   83.2010   32.9910 C.ar  151  TRP151      0.0001
     85  CH2       28.2330   83.4370   34.3380 C.ar  151  TRP151      0.0015
@<TRIPOS>BOND
     1    59    58    1
     2    75    74    2
     3    44    43    2
     4    56    58   ar
     5    56    54   ar
     6    58    57   ar
     7    48    49    1
     8    43    42    1
     9    74    73    1
    10    54    53   ar
    11    57    55   ar
    12    49    50    1
    13    49    52    1
    14    53    55   ar
    15    53    52    1
    16    42    41    1
    17    42    45    1
    18    73    76    1
    19    73    72    1
    20    63    62    2
    21    46    45    1
    22    60    50   am
    23    60    61    1
    24    76    77    1
    25    50    51    2
    26    45    47    1
    27    82    84   ar
    28    82    79   ar
    29    67    66    2
    30    84    85   ar
    31    72    66   am
    32    61    62    1
    33    62    64   am
    34    66    65    1
    35    77    79   ar
    36    77    78   ar
    37    79    81   ar
    38    64    65    1
    39    85    83   ar
    40    65    68    1
    41    78    80   ar
    42    81    83   ar
    43    81    80   ar
    44    36    35    2
    45    35    34    1
    46    68    70    1
    47    68    69    1
    48    27    26    2
    49    34    33    1
    50    34    37    1
    51    69    71    1
    52     6     8    1
    53     6     5    1
    54    26    25    1
    55    39    37    1
    56    37    38    1
    57     2     1    1
    58     2     5    1
    59     2     3    1
    60    25    28    1
    61    25    24    1
    62     5     7    1
    63    20    19    2
    64    28    29    1
    65     4     3    2
    66    31    30    2
    67    38    40    1
    68    30    29    1
    69    30    32   am
    70    24    19   am
    71    19    18    1
    72    12    11    2
    73    18    17    1
    74    18    21    1
    75    11    17   am
    76    11    10    1
    77    15    14    2
    78    13    14    1
    79    13    10    1
    80    14    16   am
    81    17    23    1
    82    10     9    1
    83    21    22    1
    84    23    22    1
