@<TRIPOS>MOLECULE
tmp/2hiwA00.pdb
 203 191 0 0 0
SMALL
GASTEIGER

@<TRIPOS>ATOM
      1  N         -7.5150   14.0820   35.7340 N.3    23  LEU23      -0.1245
      2  CA        -7.5070   13.2530   36.9310 C.3    23  LEU23       0.1561
      3  C         -7.0730   14.1160   38.1060 C.2    23  LEU23       0.2260
      4  O         -6.0670   14.8240   38.0250 O.2    23  LEU23      -0.2867
      5  CB        -6.5930   12.0340   36.7590 C.3    23  LEU23       0.0270
      6  CG        -6.9850   11.0460   35.6540 C.3    23  LEU23       0.0019
      7  CD1       -6.0330    9.8730   35.6120 C.3    23  LEU23       0.0001
      8  CD2       -8.4160   10.5620   35.8270 C.3    23  LEU23       0.0001
      9  N         -1.6800   15.1100   37.8960 N.3    28  TYR28      -0.1241
     10  CA        -0.5480   14.4150   37.2920 C.3    28  TYR28       0.1605
     11  C         -0.0740   15.1510   36.0350 C.2    28  TYR28       0.2264
     12  O          0.6800   14.6060   35.2240 O.2    28  TYR28      -0.2867
     13  CB        -0.9530   12.9840   36.9600 C.3    28  TYR28       0.0534
     14  CG        -1.5540   12.2400   38.1340 C.ar   28  TYR28      -0.0201
     15  CD1       -2.9390   12.2160   38.3370 C.ar   28  TYR28      -0.0009
     16  CD2       -0.7350   11.5670   39.0490 C.ar   28  TYR28      -0.0009
     17  CE1       -3.4950   11.5350   39.4210 C.ar   28  TYR28       0.0417
     18  CE2       -1.2790   10.8850   40.1300 C.ar   28  TYR28       0.0417
     19  CZ        -2.6570   10.8680   40.3100 C.ar   28  TYR28       0.1957
     20  OH        -3.1890   10.1880   41.3800 O.3    28  TYR28      -0.2866
     21  N         -3.2250   14.7920   32.3870 N.3    31  VAL31      -0.1245
     22  CA        -3.7130   13.4230   32.4230 C.3    31  VAL31       0.1561
     23  C         -5.2020   13.4600   32.7250 C.2    31  VAL31       0.2260
     24  O         -5.6090   13.8790   33.8080 O.2    31  VAL31      -0.2867
     25  CB        -2.9630   12.5470   33.4670 C.3    31  VAL31       0.0252
     26  CG1       -3.4140   11.1010   33.3580 C.3    31  VAL31       0.0019
     27  CG2       -1.4700   12.6370   33.2720 C.3    31  VAL31       0.0019
     28  N         -7.4400    6.3270   31.1780 N.3    44  ALA44      -0.1245
     29  CA        -6.6460    7.4850   31.5740 C.3    44  ALA44       0.1562
     30  C         -5.8160    7.8920   30.3700 C.2    44  ALA44       0.2260
     31  O         -5.1970    7.0550   29.7130 O.2    44  ALA44      -0.2867
     32  CB        -5.7680    7.1580   32.7440 C.3    44  ALA44       0.0290
     33  N         -2.9100   10.4320   29.1800 N.3    46  LYS46      -0.1245
     34  CA        -1.8470   11.4100   29.3540 C.3    46  LYS46       0.1561
     35  C         -1.5870   12.1530   28.0330 C.2    46  LYS46       0.2260
     36  O         -1.2600   11.5330   27.0120 O.2    46  LYS46      -0.2867
     37  CB        -0.5800   10.7140   29.8590 C.3    46  LYS46       0.0271
     38  CG         0.5710   11.6360   30.1860 C.3    46  LYS46       0.0035
     39  CD         1.5890   10.9680   31.0840 C.3    46  LYS46       0.0206
     40  CE         2.6610   11.9590   31.4840 C.3    46  LYS46       0.1093
     41  NZ         3.4280   11.4830   32.6780 N.3    46  LYS46      -0.1314
     42  N          8.7840    7.4140   26.7880 N.3    61  GLU61      -0.1245
     43  CA         7.8430    6.8090   27.7350 C.3    61  GLU61       0.1567
     44  C          6.9030    5.8170   27.0550 C.2    61  GLU61       0.2260
     45  O          6.6990    4.7080   27.5510 O.2    61  GLU61      -0.2867
     46  CB         7.0150    7.8850   28.4350 C.3    61  GLU61       0.0388
     47  CG         6.5080    7.4610   29.8050 C.3    61  GLU61       0.1160
     48  CD         5.4840    8.4240   30.3740 C.2    61  GLU61       0.3649
     49  OE1        5.7370    9.6550   30.3720 O.co2  61  GLU61      -0.2457
     50  OE2        4.4280    7.9410   30.8390 O.co2  61  GLU61      -0.2457
     51  N          8.6960    2.6010   25.9910 N.3    64  VAL64      -0.1231
     52  CA         9.0070    1.8220   27.1870 C.3    64  VAL64       0.1692
     53  C          7.7810    1.0300   27.6210 C.2    64  VAL64       0.2591
     54  O          7.8770   -0.1510   27.9710 O.2    64  VAL64      -0.2718
     55  CB         9.5620    2.7550   28.3080 C.3    64  VAL64       0.0266
     56  CG1        9.2940    2.2230   29.7000 C.3    64  VAL64       0.0020
     57  CG2       11.0350    2.9870   28.1000 C.3    64  VAL64       0.0020
     58  N          6.6240    1.6720   27.5420 N.am   65  MET65      -0.1979
     59  CA         5.3690    1.0590   27.9520 C.3    65  MET65       0.1605
     60  C          4.9150   -0.0730   27.0270 C.2    65  MET65       0.2287
     61  O          4.1590   -0.9530   27.4440 O.2    65  MET65      -0.2864
     62  CB         4.2910    2.1310   28.1230 C.3    65  MET65       0.0413
     63  CG         4.5600    3.0320   29.3140 C.3    65  MET65       0.0598
     64  SD         3.2810    4.2380   29.6670 S.3    65  MET65      -0.1393
     65  CE         3.7450    5.5450   28.5620 C.3    65  MET65       0.0692
     66  N          6.5940   -3.6480   28.1940 N.3    68  ILE68      -0.1245
     67  CA         6.2780   -4.1500   29.5330 C.3    68  ILE68       0.1561
     68  C          4.8260   -4.5670   29.6450 C.2    68  ILE68       0.2260
     69  O          3.9520   -3.8660   29.1660 O.2    68  ILE68      -0.2867
     70  CB         6.5800   -3.0940   30.6240 C.3    68  ILE68       0.0252
     71  CG1        5.9750   -1.7310   30.2480 C.3    68  ILE68       0.0019
     72  CG2        8.0820   -3.0150   30.8770 C.3    68  ILE68       0.0019
     73  CD1        6.1740   -0.6360   31.2950 C.3    68  ILE68       0.0001
     74  N          1.2450   -4.1620   36.6730 N.3    73  LEU73      -0.1231
     75  CA         1.7930   -2.9670   36.0350 C.3    73  LEU73       0.1693
     76  C          0.6690   -2.3090   35.2830 C.2    73  LEU73       0.2591
     77  O         -0.0170   -2.9720   34.4870 O.2    73  LEU73      -0.2718
     78  CB         2.8900   -3.3270   35.0290 C.3    73  LEU73       0.0284
     79  CG         4.2840   -3.7770   35.4450 C.3    73  LEU73       0.0019
     80  CD1        5.1440   -3.8090   34.1910 C.3    73  LEU73       0.0001
     81  CD2        4.8890   -2.8680   36.5050 C.3    73  LEU73       0.0001
     82  N          0.4700   -1.0150   35.5210 N.am   74  VAL74      -0.1980
     83  CA        -0.5460   -0.2620   34.7950 C.3    74  VAL74       0.1595
     84  C         -0.4250   -0.5940   33.3120 C.2    74  VAL74       0.2287
     85  O          0.6770   -0.5680   32.7550 O.2    74  VAL74      -0.2864
     86  CB        -0.4450    1.2770   35.0370 C.3    74  VAL74       0.0276
     87  CG1        0.6630    1.9170   34.1810 C.3    74  VAL74       0.0022
     88  CG2       -1.7940    1.9420   34.7650 C.3    74  VAL74       0.0022
     89  N         -1.2470    9.1320   25.4860 N.3    88  ILE88      -0.1245
     90  CA        -0.8740    7.8030   25.9700 C.3    88  ILE88       0.1561
     91  C         -2.0520    7.2540   26.7690 C.2    88  ILE88       0.2260
     92  O         -2.3200    7.6960   27.8920 O.2    88  ILE88      -0.2867
     93  CB         0.4330    7.7610   26.8320 C.3    88  ILE88       0.0252
     94  CG1        1.6580    8.1780   26.0070 C.3    88  ILE88       0.0019
     95  CG2        0.6620    6.3470   27.3550 C.3    88  ILE88       0.0019
     96  CD1        2.9340    8.3540   26.8160 C.3    88  ILE88       0.0001
     97  N         -4.1320    4.5350   28.7720 N.3    90  THR90      -0.1203
     98  CA        -3.8730    3.5300   29.7630 C.3    90  THR90       0.1994
     99  C         -5.2160    3.1640   30.3750 C.2    90  THR90       0.2618
    100  O         -6.1500    3.9700   30.3560 O.2    90  THR90      -0.2717
    101  CB        -2.8400    4.0790   30.7770 C.3    90  THR90       0.1784
    102  OG1       -1.5280    3.6490   30.3940 O.3    90  THR90      -0.2211
    103  CG2       -3.0970    3.6360   32.1850 C.3    90  THR90       0.0376
    104  N         -5.3260    1.9410   30.8810 N.am   91  GLU91      -0.1965
    105  CA        -6.4680    1.5540   31.7250 C.3    91  GLU91       0.1733
    106  C         -6.7150    2.5690   32.8400 C.2    91  GLU91       0.2616
    107  O         -5.8060    3.2770   33.2640 O.2    91  GLU91      -0.2715
    108  CB        -6.2180    0.1890   32.3440 C.3    91  GLU91       0.0429
    109  CG        -4.9040    0.1090   33.1260 C.3    91  GLU91       0.1163
    110  CD        -4.7360   -1.2280   33.8070 C.2    91  GLU91       0.3649
    111  OE1       -3.5950   -1.5550   34.2010 O.co2  91  GLU91      -0.2457
    112  OE2       -5.7440   -1.9550   33.9310 O.co2  91  GLU91      -0.2457
    113  N         -7.9530    2.6320   33.3090 N.am   92  PHE92      -0.1960
    114  CA        -8.3120    3.5250   34.3960 C.3    92  PHE92       0.1771
    115  C         -8.4800    2.7290   35.6850 C.2    92  PHE92       0.2619
    116  O         -9.3030    1.8190   35.7770 O.2    92  PHE92      -0.2715
    117  CB        -9.5840    4.3130   34.0520 C.3    92  PHE92       0.0574
    118  CG       -10.0680    5.1950   35.1620 C.ar   92  PHE92      -0.0200
    119  CD1       -9.5280    6.4640   35.3470 C.ar   92  PHE92      -0.0042
    120  CD2      -11.0680    4.7530   36.0340 C.ar   92  PHE92      -0.0042
    121  CE1       -9.9650    7.2700   36.3760 C.ar   92  PHE92      -0.0003
    122  CE2      -11.5110    5.5580   37.0660 C.ar   92  PHE92      -0.0003
    123  CZ       -10.9570    6.8200   37.2410 C.ar   92  PHE92      -0.0000
    124  N         -7.6840    3.0770   36.6850 N.am   93  MET93      -0.1977
    125  CA        -7.7930    2.4120   37.9720 C.3    93  MET93       0.1605
    126  C         -8.7520    3.1550   38.8720 C.2    93  MET93       0.2287
    127  O         -8.5580    4.3250   39.1880 O.2    93  MET93      -0.2864
    128  CB        -6.4290    2.2310   38.6180 C.3    93  MET93       0.0413
    129  CG        -5.4820    1.4030   37.7630 C.3    93  MET93       0.0598
    130  SD        -5.7410   -0.3470   38.0410 S.3    93  MET93      -0.1393
    131  CE        -6.9480   -0.7430   36.7770 C.3    93  MET93       0.0692
    132  N         -7.6750    5.5870   42.1410 N.3    96  GLY96      -0.1225
    133  CA        -6.4900    6.4500   42.0750 C.3    96  GLY96       0.1811
    134  C         -5.2560    5.8680   42.7450 C.2    96  GLY96       0.2280
    135  O         -5.1830    4.6580   42.9580 O.2    96  GLY96      -0.2866
    136  N          9.7110   -6.6980   36.4450 N.3   129  LEU129     -0.1245
    137  CA        10.6420   -5.6670   35.9860 C.3   129  LEU129      0.1561
    138  C         12.1110   -6.0730   36.1470 C.2   129  LEU129      0.2260
    139  O         12.9370   -5.8070   35.2650 O.2   129  LEU129     -0.2867
    140  CB        10.3610   -4.3660   36.7280 C.3   129  LEU129      0.0270
    141  CG         9.6360   -3.2140   36.0280 C.3   129  LEU129      0.0019
    142  CD1        8.8450   -3.6080   34.7790 C.3   129  LEU129      0.0001
    143  CD2        8.7630   -2.5360   37.0310 C.3   129  LEU129      0.0001
    144  N         14.5440   -3.9120   33.8700 N.3   134  PHE134     -0.1241
    145  CA        13.9540   -2.5810   33.9250 C.3   134  PHE134      0.1605
    146  C         14.1990   -1.9530   35.3030 C.2   134  PHE134      0.2264
    147  O         13.8170   -2.5150   36.3270 O.2   134  PHE134     -0.2867
    148  CB        12.4490   -2.6480   33.6310 C.3   134  PHE134      0.0534
    149  CG        12.0880   -2.5090   32.1700 C.ar  134  PHE134     -0.0203
    150  CD1       12.4630   -3.4790   31.2380 C.ar  134  PHE134     -0.0042
    151  CD2       11.3430   -1.4090   31.7290 C.ar  134  PHE134     -0.0042
    152  CE1       12.1130   -3.3570   29.8730 C.ar  134  PHE134     -0.0003
    153  CE2       10.9910   -1.2690   30.3720 C.ar  134  PHE134     -0.0003
    154  CZ        11.3750   -2.2490   29.4420 C.ar  134  PHE134     -0.0000
    155  N         13.0260    0.9300   37.5980 N.3   136  HIS136     -0.1241
    156  CA        11.8170    1.7370   37.7100 C.3   136  HIS136      0.1621
    157  C         12.1680    3.1900   38.0250 C.2   136  HIS136      0.2264
    158  O         11.6620    4.1190   37.3820 O.2   136  HIS136     -0.2867
    159  CB        10.8910    1.1480   38.7810 C.3   136  HIS136      0.0745
    160  CG         9.5780    1.8540   38.9000 C.ar  136  HIS136      0.0817
    161  ND1        9.4310    3.0440   39.5780 N.ar  136  HIS136     -0.2268
    162  CD2        8.3490    1.5290   38.4420 C.ar  136  HIS136      0.1154
    163  CE1        8.1720    3.4310   39.5150 C.ar  136  HIS136      0.1986
    164  NE2        7.4920    2.5210   38.8440 N.ar  136  HIS136     -0.2212
    165  N         -1.3410    2.3920   41.9810 N.3   145  LEU145     -0.1245
    166  CA        -2.7770    2.5970   41.7280 C.3   145  LEU145      0.1561
    167  C         -3.5900    1.4690   42.3480 C.2   145  LEU145      0.2260
    168  O         -3.1110    0.3480   42.4420 O.2   145  LEU145     -0.2867
    169  CB        -3.0390    2.5810   40.2270 C.3   145  LEU145      0.0270
    170  CG        -3.1260    3.8320   39.3440 C.3   145  LEU145      0.0019
    171  CD1       -2.9040    5.1490   40.0850 C.3   145  LEU145      0.0001
    172  CD2       -2.1780    3.6470   38.1720 C.3   145  LEU145      0.0001
    173  N          1.6680   -1.1190   39.7940 N.3   154  VAL154     -0.1231
    174  CA         2.8240   -0.2300   39.8200 C.3   154  VAL154      0.1692
    175  C          2.7780    0.5920   38.5370 C.2   154  VAL154      0.2592
    176  O          2.4990    0.0610   37.4770 O.2   154  VAL154     -0.2718
    177  CB         4.1540   -1.0330   39.9230 C.3   154  VAL154      0.0266
    178  CG1        5.3860   -0.1410   39.7210 C.3   154  VAL154      0.0020
    179  CG2        4.2340   -1.7480   41.2610 C.3   154  VAL154      0.0020
    180  N          3.0230    1.8950   38.6550 N.am  155  ALA155     -0.1966
    181  CA         3.0160    2.8010   37.5180 C.3   155  ALA155      0.1728
    182  C          4.1210    3.8400   37.7000 C.2   155  ALA155      0.2616
    183  O          4.9770    3.6950   38.5800 O.2   155  ALA155     -0.2715
    184  CB         1.6620    3.4760   37.4060 C.3   155  ALA155      0.0334
    185  N          4.0990    4.8850   36.8720 N.am  156  ASP156     -0.1957
    186  CA         5.0880    5.9610   36.9330 C.3   156  ASP156      0.1840
    187  C          4.5250    7.2160   36.2860 C.2   156  ASP156      0.2622
    188  O          4.4090    7.2960   35.0530 O.2   156  ASP156     -0.2715
    189  CB         6.3850    5.5390   36.2410 C.3   156  ASP156      0.1450
    190  CG         7.5140    6.5180   36.4600 C.2   156  ASP156      0.3671
    191  OD1        7.2420    7.6790   36.8250 O.co2 156  ASP156     -0.2456
    192  OD2        8.6790    6.1260   36.2520 O.co2 156  ASP156     -0.2456
    193  N          4.1980    8.2060   37.1180 N.am  157  PHE157     -0.1974
    194  CA         3.4750    9.3970   36.6370 C.3   157  PHE157      0.1639
    195  C          4.3440   10.6190   36.3180 C.2   157  PHE157      0.2290
    196  O          3.8160   11.6680   35.9590 O.2   157  PHE157     -0.2864
    197  CB         2.3540    9.7850   37.6120 C.3   157  PHE157      0.0560
    198  CG         1.4910    8.6370   38.0410 C.ar  157  PHE157     -0.0200
    199  CD1        1.2860    8.3730   39.3830 C.ar  157  PHE157     -0.0042
    200  CD2        0.8740    7.8150   37.1030 C.ar  157  PHE157     -0.0042
    201  CE1        0.4780    7.2950   39.7850 C.ar  157  PHE157     -0.0003
    202  CE2        0.0720    6.7440   37.4990 C.ar  157  PHE157     -0.0003
    203  CZ        -0.1170    6.4890   38.8410 C.ar  157  PHE157     -0.0000
@<TRIPOS>BOND
     1    89    90    1
     2    90    91    1
     3    90    93    1
     4    51    52    1
     5    94    96    1
     6    94    93    1
     7    91    92    2
     8    42    43    1
     9    93    95    1
    10    36    35    2
    11    60    61    2
    12    60    59    1
    13    44    45    2
    14    44    43    1
    15    52    53    1
    16    52    55    1
    17    58    53   am
    18    58    59    1
    19    53    54    2
    20    43    46    1
    21    59    62    1
    22    35    34    1
    23    57    55    1
    24    62    63    1
    25    66    67    1
    26    55    56    1
    27    46    47    1
    28    65    64    1
    29    97    98    1
    30    69    68    2
    31    33    34    1
    32    63    64    1
    33    34    37    1
    34   154   152   ar
    35   154   153   ar
    36    67    68    1
    37    67    70    1
    38    31    30    2
    39    98    99    1
    40    98   101    1
    41    47    48    1
    42    37    38    1
    43   152   150   ar
    44    38    39    1
    45    71    70    1
    46    71    73    1
    47   100    99    2
    48    30    29    1
    49   153   151   ar
    50    49    48   ar
    51    48    50   ar
    52    99   104   am
    53   102   101    1
    54    70    72    1
    55   101   103    1
    56   104   105    1
    57    39    40    1
    58    28    29    1
    59   150   149   ar
    60    40    41    1
    61    29    32    1
    62   105   108    1
    63   105   106    1
    64   151   149   ar
    65   149   148    1
    66   108   109    1
    67    21    22    1
    68    22    23    1
    69    22    25    1
    70    23    24    2
    71    85    84    2
    72   106   107    2
    73   106   113   am
    74   109   110    1
    75    27    25    1
    76   113   114    1
    77    84    83    1
    78    26    25    1
    79   148   145    1
    80   110   112   ar
    81   110   111   ar
    82   144   145    1
    83   145   146    1
    84   117   114    1
    85   117   118    1
    86    87    86    1
    87    80    79    1
    88   114   115    1
    89    77    76    2
    90    88    86    1
    91   142   141    1
    92    83    86    1
    93    83    82    1
    94    78    79    1
    95    78    75    1
    96   188   187    2
    97   118   119   ar
    98   118   120   ar
    99    12    11    2
   100   139   138    2
   101    76    82   am
   102    76    75    1
   103   146   147    2
   104   119   121   ar
   105    79    81    1
   106     7     6    1
   107     6     8    1
   108     6     5    1
   109   115   116    2
   110   115   124   am
   111     1     2    1
   112   196   195    2
   113   137   138    1
   114   137   136    1
   115   137   140    1
   116   141   140    1
   117   141   143    1
   118   120   122   ar
   119    75    74    1
   120    11    10    1
   121   189   190    1
   122   189   186    1
   123   192   190   ar
   124   187   186    1
   125   187   193   am
   126   195   194    1
   127   121   123   ar
   128   190   191   ar
   129   194   193    1
   130   194   197    1
   131   124   125    1
   132     5     2    1
   133   131   130    1
   134   185   186    1
   135   185   182   am
   136     2     3    1
   137    13    10    1
   138    13    14    1
   139   122   123   ar
   140   200   202   ar
   141   200   198   ar
   142    10     9    1
   143   158   157    2
   144   184   181    1
   145   176   175    2
   146   202   203   ar
   147   181   182    1
   148   181   180    1
   149   155   156    1
   150   197   198    1
   151   182   183    2
   152   156   157    1
   153   156   159    1
   154   129   130    1
   155   129   128    1
   156   125   128    1
   157   125   126    1
   158     4     3    2
   159   198   199   ar
   160    14    15   ar
   161    14    16   ar
   162   172   170    1
   163    15    17   ar
   164   162   164   ar
   165   162   160   ar
   166   175   180   am
   167   175   174    1
   168   159   160    1
   169   203   201   ar
   170   164   163   ar
   171   126   127    2
   172   160   161   ar
   173    16    18   ar
   174   170   171    1
   175   170   169    1
   176   199   201   ar
   177    17    19   ar
   178   163   161   ar
   179   178   177    1
   180   173   174    1
   181   174   177    1
   182   177   179    1
   183    18    19   ar
   184   169   166    1
   185    19    20    1
   186   166   165    1
   187   166   167    1
   188   133   132    1
   189   133   134    1
   190   167   168    2
   191   134   135    2
