@<TRIPOS>MOLECULE
tmp/2hixA00.pdb
 161 153 0 0 0
SMALL
GASTEIGER

@<TRIPOS>ATOM
      1  N         22.7740   32.4960   22.3140 N.3   224  LEU224     -0.1231
      2  CA        21.4060   32.9290   22.5030 C.3   224  LEU224      0.1693
      3  C         21.0600   34.1180   21.6280 C.2   224  LEU224      0.2591
      4  O         21.9200   34.9140   21.3010 O.2   224  LEU224     -0.2718
      5  CB        21.1620   33.2660   23.9740 C.3   224  LEU224      0.0284
      6  CG        21.4550   32.1930   25.0380 C.3   224  LEU224      0.0019
      7  CD1       21.1930   32.7730   26.4170 C.3   224  LEU224      0.0001
      8  CD2       20.6670   30.9040   24.8040 C.3   224  LEU224      0.0001
      9  N         19.7840   34.2510   21.2840 N.am  225  ALA225     -0.1980
     10  CA        19.3260   35.2740   20.3610 C.3   225  ALA225      0.1597
     11  C         18.6560   36.4450   21.0560 C.2   225  ALA225      0.2287
     12  O         17.9830   36.2750   22.0740 O.2   225  ALA225     -0.2864
     13  CB        18.3690   34.6660   19.3790 C.3   225  ALA225      0.0319
     14  N         16.3440   31.3110    9.3240 N.3   245  ASP245     -0.1225
     15  CA        15.8980   29.9410    9.6070 C.3   245  ASP245      0.1805
     16  C         14.4850   29.8870   10.1460 C.2   245  ASP245      0.2598
     17  O         14.0530   30.8310   10.8010 O.2   245  ASP245     -0.2718
     18  CB        16.7700   29.3610   10.7120 C.3   245  ASP245      0.1424
     19  CG        18.1190   28.9220   10.2290 C.2   245  ASP245      0.3668
     20  OD1       18.4010   29.0880    9.0090 O.co2 245  ASP245     -0.2456
     21  OD2       18.8850   28.4000   11.0880 O.co2 245  ASP245     -0.2456
     22  N         13.7820   28.7780    9.9170 N.am  246  TYR246     -0.1962
     23  CA        12.5260   28.5280   10.6190 C.3   246  TYR246      0.1771
     24  C         12.8630   28.3520   12.0990 C.2   246  TYR246      0.2619
     25  O         13.8340   27.6750   12.4430 O.2   246  TYR246     -0.2715
     26  CB        11.8390   27.2820   10.0450 C.3   246  TYR246      0.0574
     27  CG        10.5090   26.9120   10.6610 C.ar  246  TYR246     -0.0198
     28  CD1        9.3120   27.3920   10.1310 C.ar  246  TYR246     -0.0009
     29  CD2       10.4450   26.0560   11.7570 C.ar  246  TYR246     -0.0009
     30  CE1        8.0820   27.0380   10.6920 C.ar  246  TYR246      0.0417
     31  CE2        9.2300   25.7020   12.3230 C.ar  246  TYR246      0.0417
     32  CZ         8.0570   26.1920   11.7880 C.ar  246  TYR246      0.1957
     33  OH         6.8630   25.8270   12.3540 O.3   246  TYR246     -0.2866
     34  N         12.0770   28.9860   12.9680 N.am  247  LYS247     -0.1963
     35  CA        12.2590   28.8340   14.4140 C.3   247  LYS247      0.1728
     36  C         11.4580   27.6010   14.8690 C.2   247  LYS247      0.2616
     37  O         10.2340   27.6450   15.0220 O.2   247  LYS247     -0.2715
     38  CB        11.8190   30.1040   15.1330 C.3   247  LYS247      0.0311
     39  CG        12.2160   30.2050   16.5930 C.3   247  LYS247      0.0038
     40  CD        11.3550   29.2970   17.4720 C.3   247  LYS247      0.0206
     41  CE        11.3510   29.7330   18.9330 C.3   247  LYS247      0.1093
     42  NZ        10.6830   28.7100   19.7950 N.3   247  LYS247     -0.1314
     43  N         12.1600   26.4910   15.0530 N.am  248  TYR248     -0.1974
     44  CA        11.5320   25.2220   15.4190 C.3   248  TYR248      0.1639
     45  C         11.0630   25.1410   16.8670 C.2   248  TYR248      0.2290
     46  O         11.5990   25.7920   17.7630 O.2   248  TYR248     -0.2864
     47  CB        12.4800   24.0720   15.1030 C.3   248  TYR248      0.0560
     48  CG        12.7070   23.9210   13.6270 C.ar  248  TYR248     -0.0198
     49  CD1       13.7370   24.6280   12.9730 C.ar  248  TYR248     -0.0009
     50  CD2       11.8780   23.0890   12.8670 C.ar  248  TYR248     -0.0009
     51  CE1       13.9300   24.4990   11.5860 C.ar  248  TYR248      0.0417
     52  CE2       12.0580   22.9600   11.4990 C.ar  248  TYR248      0.0417
     53  CZ        13.0830   23.6610   10.8640 C.ar  248  TYR248      0.1957
     54  OH        13.2330   23.4950    9.5130 O.3   248  TYR248     -0.2866
     55  N         16.2000   21.8040   22.2420 N.3   252  ARG252     -0.1245
     56  CA        17.4570   22.3360   21.7030 C.3   252  ARG252      0.1563
     57  C         18.5710   21.3610   22.0700 C.2   252  ARG252      0.2260
     58  O         19.0470   21.3390   23.2130 O.2   252  ARG252     -0.2867
     59  CB        17.7730   23.7460   22.2170 C.3   252  ARG252      0.0307
     60  CG        19.0590   24.3090   21.6020 C.3   252  ARG252      0.0489
     61  CD        19.3360   25.7850   21.9140 C.3   252  ARG252      0.2205
     62  NE        20.5590   26.2380   21.2490 N.pl3 252  ARG252     -0.0865
     63  CZ        21.0040   27.4970   21.2160 C.cat 252  ARG252      0.5346
     64  NH1       20.3350   28.4820   21.7900 N.pl3 252  ARG252      0.1354
     65  NH2       22.1350   27.7780   20.5820 N.pl3 252  ARG252      0.1354
     66  N         18.8030   21.9440   26.2440 N.3   267  ARG267     -0.1245
     67  CA        18.9090   23.3960   26.2920 C.3   267  ARG267      0.1563
     68  C         19.6260   23.8260   27.5670 C.2   267  ARG267      0.2260
     69  O         20.4250   24.7540   27.5500 O.2   267  ARG267     -0.2867
     70  CB        17.5220   24.0430   26.1500 C.3   267  ARG267      0.0307
     71  CG        17.3960   25.5090   26.5950 C.3   267  ARG267      0.0489
     72  CD        18.3000   26.4400   25.7960 C.3   267  ARG267      0.2205
     73  NE        19.0990   27.2240   26.7300 N.pl3 267  ARG267     -0.0865
     74  CZ        18.8990   28.5070   26.9800 C.cat 267  ARG267      0.5346
     75  NH1       17.9550   29.1580   26.3090 N.pl3 267  ARG267      0.1354
     76  NH2       19.6600   29.1320   27.8780 N.pl3 267  ARG267      0.1354
     77  N         17.4750   21.2240   16.4920 N.3   297  GLU297     -0.1245
     78  CA        16.2550   21.1390   17.2500 C.3   297  GLU297      0.1567
     79  C         15.6260   19.7660   16.9990 C.2   297  GLU297      0.2260
     80  O         15.4840   19.3330   15.8420 O.2   297  GLU297     -0.2867
     81  CB        15.3280   22.3060   16.8980 C.3   297  GLU297      0.0388
     82  CG        14.2710   22.6070   17.9710 C.3   297  GLU297      0.1160
     83  CD        14.7060   23.6300   18.9920 C.2   297  GLU297      0.3649
     84  OE1       15.7750   24.2360   18.8130 O.co2 297  GLU297     -0.2457
     85  OE2       13.9770   23.8430   19.9840 O.co2 297  GLU297     -0.2457
     86  N         21.1670   23.2010   12.8430 N.3   337  PHE337     -0.1241
     87  CA        21.3580   24.6110   12.5050 C.3   337  PHE337      0.1605
     88  C         22.7250   25.2220   12.8380 C.2   337  PHE337      0.2264
     89  O         22.9770   26.3980   12.5140 O.2   337  PHE337     -0.2867
     90  CB        20.2390   25.4700   13.0870 C.3   337  PHE337      0.0534
     91  CG        20.1490   25.4640   14.5860 C.ar  337  PHE337     -0.0203
     92  CD1       21.0120   26.2360   15.3540 C.ar  337  PHE337     -0.0042
     93  CD2       19.1470   24.7430   15.2250 C.ar  337  PHE337     -0.0042
     94  CE1       20.9190   26.2610   16.7440 C.ar  337  PHE337     -0.0003
     95  CE2       19.0230   24.7440   16.6200 C.ar  337  PHE337     -0.0003
     96  CZ        19.9160   25.5050   17.3870 C.ar  337  PHE337     -0.0000
     97  N         18.0970   22.8220    8.9440 N.3   372  ALA372     -0.1245
     98  CA        17.0230   23.7890    9.1680 C.3   372  ALA372      0.1562
     99  C         16.5630   24.4120    7.8390 C.2   372  ALA372      0.2260
    100  O         17.3950   24.7730    7.0180 O.2   372  ALA372     -0.2867
    101  CB        17.5020   24.8840   10.1460 C.3   372  ALA372      0.0290
    102  N         14.4730   32.6950   12.8730 N.3   399  MET399     -0.1245
    103  CA        15.7130   33.0850   13.5070 C.3   399  MET399      0.1570
    104  C         16.5710   33.7530   12.4650 C.2   399  MET399      0.2261
    105  O         17.0200   33.1200   11.5090 O.2   399  MET399     -0.2867
    106  CB        16.4360   31.8660   14.0780 C.3   399  MET399      0.0387
    107  CG        15.7630   31.2450   15.3170 C.3   399  MET399      0.0595
    108  SD        15.8070   32.2800   16.8100 S.3   399  MET399     -0.1393
    109  CE        17.3920   33.1290   16.6160 C.3   399  MET399      0.0692
    110  N         19.8720   35.4870   11.2240 N.3   401  LYS401     -0.1245
    111  CA        21.2690   35.3350   11.5970 C.3   401  LYS401      0.1561
    112  C         22.2310   36.1030   10.6910 C.2   401  LYS401      0.2260
    113  O         22.1370   36.0280    9.4670 O.2   401  LYS401     -0.2867
    114  CB        21.6070   33.8490   11.6200 C.3   401  LYS401      0.0271
    115  CG        20.6680   33.0390   12.5260 C.3   401  LYS401      0.0035
    116  CD        21.3610   31.8380   13.1290 C.3   401  LYS401      0.0206
    117  CE        20.9830   30.5630   12.4200 C.3   401  LYS401      0.1093
    118  NZ        19.9760   29.8520   13.2200 N.3   401  LYS401     -0.1314
    119  N         23.9550   36.5210   24.9790 N.3   414  ARG414     -0.1245
    120  CA        22.8130   36.9620   24.2040 C.3   414  ARG414      0.1563
    121  C         23.2350   38.2330   23.4690 C.2   414  ARG414      0.2260
    122  O         23.6970   39.1940   24.0790 O.2   414  ARG414     -0.2867
    123  CB        21.6630   37.2360   25.1600 C.3   414  ARG414      0.0307
    124  CG        20.3170   37.4690   24.5190 C.3   414  ARG414      0.0489
    125  CD        19.2120   36.9210   25.4030 C.3   414  ARG414      0.2205
    126  NE        18.5920   35.7620   24.7790 N.pl3 414  ARG414     -0.0865
    127  CZ        17.9820   34.7800   25.4320 C.cat 414  ARG414      0.5346
    128  NH1       17.9240   34.7830   26.7530 N.pl3 414  ARG414      0.1354
    129  NH2       17.4280   33.7900   24.7510 N.pl3 414  ARG414      0.1354
    130  N         22.2800   36.6850   16.3530 N.3   418  TRP418     -0.1241
    131  CA        21.0230   35.9900   16.0040 C.3   418  TRP418      0.1605
    132  C         19.8810   36.7970   16.5840 C.2   418  TRP418      0.2264
    133  O         19.9750   37.2500   17.7260 O.2   418  TRP418     -0.2867
    134  CB        20.9010   34.5740   16.5660 C.3   418  TRP418      0.0550
    135  CG        21.9650   33.5290   16.2780 C.ar  418  TRP418      0.0003
    136  CD1       23.0310   33.6180   15.4400 C.ar  418  TRP418      0.0946
    137  CD2       22.0200   32.2120   16.8600 C.ar  418  TRP418      0.0152
    138  NE1       23.7720   32.4460   15.4790 N.ar  418  TRP418     -0.2442
    139  CE2       23.1680   31.5680   16.3370 C.ar  418  TRP418      0.0810
    140  CE3       21.2240   31.5300   17.8050 C.ar  418  TRP418      0.0012
    141  CZ2       23.5280   30.2780   16.7020 C.ar  418  TRP418      0.0191
    142  CZ3       21.5770   30.2470   18.1650 C.ar  418  TRP418      0.0001
    143  CH2       22.7200   29.6310   17.6140 C.ar  418  TRP418      0.0015
    144  N         15.5260   36.6780   16.9660 N.3   420  LYS420     -0.1245
    145  CA        14.2440   36.0300   16.6790 C.3   420  LYS420      0.1561
    146  C         13.1780   37.0250   16.2540 C.2   420  LYS420      0.2260
    147  O         13.1080   38.1410   16.7760 O.2   420  LYS420     -0.2867
    148  CB        13.7320   35.0960   17.8000 C.3   420  LYS420      0.0271
    149  CG        14.3240   35.2590   19.1990 C.3   420  LYS420      0.0035
    150  CD        14.3330   33.9170   19.9860 C.3   420  LYS420      0.0206
    151  CE        14.7990   34.0800   21.4730 C.3   420  LYS420      0.1093
    152  NZ        14.3810   32.9630   22.4090 N.3   420  LYS420     -0.1314
    153  N          9.1900   36.8480   16.0070 N.3   422  LYS422     -0.1245
    154  CA         8.1170   35.9780   16.4760 C.3   422  LYS422      0.1561
    155  C          6.7190   36.5280   16.2240 C.2   422  LYS422      0.2260
    156  O          6.5540   37.6960   15.8280 O.2   422  LYS422     -0.2867
    157  CB         8.3020   35.6340   17.9590 C.3   422  LYS422      0.0271
    158  CG         9.4110   34.6200   18.2020 C.3   422  LYS422      0.0035
    159  CD         9.0820   33.6440   19.3380 C.3   422  LYS422      0.0206
    160  CE         9.4500   34.1900   20.7190 C.3   422  LYS422      0.1093
    161  NZ         9.4360   33.0970   21.7270 N.3   422  LYS422     -0.1314
@<TRIPOS>BOND
     1   100    99    2
     2    99    98    1
     3    97    98    1
     4    20    19   ar
     5    98   101    1
     6    14    15    1
     7   113   112    2
     8    54    53    1
     9    15    16    1
    10    15    18    1
    11    22    16   am
    12    22    23    1
    13    26    23    1
    14    26    27    1
    15    28    27   ar
    16    28    30   ar
    17    16    17    2
    18    19    18    1
    19    19    21   ar
    20    23    24    1
    21    27    29   ar
    22   112   111    1
    23    30    32   ar
    24    53    52   ar
    25    53    51   ar
    26   110   111    1
    27    52    50   ar
    28   105   104    2
    29    51    49   ar
    30   111   114    1
    31   114   115    1
    32    29    31   ar
    33    32    31   ar
    34    32    33    1
    35    24    25    2
    36    24    34   am
    37   117   116    1
    38   117   118    1
    39   104   103    1
    40    87    88    1
    41    87    86    1
    42    87    90    1
    43    89    88    2
    44   115   116    1
    45    50    48   ar
    46   102   103    1
    47    34    35    1
    48    49    48   ar
    49    90    91    1
    50   103   106    1
    51    48    47    1
    52   106   107    1
    53    35    36    1
    54    35    38    1
    55    91    93   ar
    56    91    92   ar
    57    36    37    2
    58    36    43   am
    59    43    44    1
    60    47    44    1
    61    38    39    1
    62    93    95   ar
    63   107   108    1
    64    92    94   ar
    65    44    45    1
    66   136   138   ar
    67   136   135   ar
    68   138   139   ar
    69   156   155    2
    70    80    79    2
    71   131   130    1
    72   131   134    1
    73   131   132    1
    74   153   154    1
    75   155   154    1
    76   146   145    1
    77   146   147    2
    78   135   134    1
    79   135   137   ar
    80   139   141   ar
    81   139   137   ar
    82   154   157    1
    83    77    78    1
    84   132   133    2
    85    39    40    1
    86   109   108    1
    87    95    96   ar
    88   145   144    1
    89   145   148    1
    90   141   143   ar
    91    94    96   ar
    92   137   140   ar
    93    45    46    2
    94    81    78    1
    95    81    82    1
    96    79    78    1
    97    40    41    1
    98   143   142   ar
    99   148   149    1
   100   140   142   ar
   101   157   158    1
   102    82    83    1
   103   158   159    1
   104    84    83   ar
   105    41    42    1
   106    83    85   ar
   107   149   150    1
   108   159   160    1
   109    13    10    1
   110   150   151    1
   111    10    11    1
   112    10     9    1
   113    65    63    1
   114   160   161    1
   115    11    12    2
   116    63    62    2
   117    63    64    1
   118    62    61    1
   119     9     3   am
   120     4     3    2
   121   151   152    1
   122    60    61    1
   123    60    59    1
   124     3     2    1
   125    56    57    1
   126    56    59    1
   127    56    55    1
   128    57    58    2
   129     1     2    1
   130     2     5    1
   131   121   122    2
   132   121   120    1
   133     5     6    1
   134   120   119    1
   135   120   123    1
   136   124   123    1
   137   124   125    1
   138   129   127    1
   139   126   125    1
   140   126   127    2
   141     8     6    1
   142     6     7    1
   143   127   128    1
   144    72    71    1
   145    72    73    1
   146    70    67    1
   147    70    71    1
   148    66    67    1
   149    67    68    1
   150    75    74    1
   151    73    74    2
   152    74    76    1
   153    69    68    2
