@<TRIPOS>MOLECULE
tmp/2hj0B00.pdb
 99 92 0 0 0
SMALL
GASTEIGER

@<TRIPOS>ATOM
      1  N        -45.2160   89.8000   20.3360 N.3    67  HIS67      -0.1241
      2  CA       -45.5210   90.6480   21.4850 C.3    67  HIS67       0.1621
      3  C        -45.6590   89.9320   22.8180 C.2    67  HIS67       0.2264
      4  O        -46.3840   90.3940   23.7060 O.2    67  HIS67      -0.2867
      5  CB       -46.8000   91.4550   21.2210 C.3    67  HIS67       0.0745
      6  CG       -48.0430   90.6210   21.1370 C.ar   67  HIS67       0.0817
      7  ND1      -48.2920   89.7590   20.0910 N.ar   67  HIS67      -0.2268
      8  CD2      -49.0900   90.4980   21.9870 C.ar   67  HIS67       0.1154
      9  CE1      -49.4410   89.1390   20.3020 C.ar   67  HIS67       0.1986
     10  NE2      -49.9430   89.5690   21.4460 N.ar   67  HIS67      -0.2212
     11  N        -45.0430   91.9900   25.7760 N.3    70  ARG70      -0.1245
     12  CA       -45.9900   93.0870   25.9140 C.3    70  ARG70       0.1563
     13  C        -45.3400   94.4520   26.1330 C.2    70  ARG70       0.2260
     14  O        -44.4220   94.8230   25.4030 O.2    70  ARG70      -0.2867
     15  CB       -46.9610   92.7640   27.0330 C.3    70  ARG70       0.0307
     16  CG       -47.7370   91.5220   26.7000 C.3    70  ARG70       0.0489
     17  CD       -49.0180   91.4740   27.4720 C.3    70  ARG70       0.2205
     18  NE       -48.8740   90.6750   28.6800 N.pl3  70  ARG70      -0.0865
     19  CZ       -49.8200   90.5560   29.6000 C.cat  70  ARG70       0.5346
     20  NH1      -49.5960   89.8020   30.6660 N.pl3  70  ARG70       0.1354
     21  NH2      -50.9750   91.2050   29.4420 N.pl3  70  ARG70       0.1354
     22  N        -48.4350   91.8860   17.3370 N.3    94  SER94      -0.1217
     23  CA       -49.2760   92.9250   17.9280 C.3    94  SER94       0.1889
     24  C        -48.4030   94.0820   18.3880 C.2    94  SER94       0.2288
     25  O        -47.2030   93.9090   18.5800 O.2    94  SER94      -0.2866
     26  CB       -50.1140   92.3780   19.0860 C.3    94  SER94       0.2089
     27  OG       -51.2330   93.2210   19.3540 O.3    94  SER94      -0.2183
     28  N        -52.4460   92.5850   15.3750 N.3   117  SER117     -0.1217
     29  CA       -53.6780   92.4140   16.1240 C.3   117  SER117      0.1889
     30  C        -54.1660   93.7800   16.6140 C.2   117  SER117      0.2288
     31  O        -55.3360   94.1360   16.4450 O.2   117  SER117     -0.2866
     32  CB       -53.4270   91.4690   17.3120 C.3   117  SER117      0.2089
     33  OG       -54.5330   91.4180   18.1990 O.3   117  SER117     -0.2183
     34  N        -52.9180   99.6370   20.1500 N.3   120  ARG120     -0.1245
     35  CA       -53.0610  100.2260   21.4820 C.3   120  ARG120      0.1563
     36  C        -53.1630  101.7580   21.4300 C.2   120  ARG120      0.2260
     37  O        -53.2740  102.3580   20.3580 O.2   120  ARG120     -0.2867
     38  CB       -51.9040   99.8200   22.4040 C.3   120  ARG120      0.0307
     39  CG       -51.8320   98.3340   22.7480 C.3   120  ARG120      0.0489
     40  CD       -53.1420   97.7930   23.3100 C.3   120  ARG120      0.2205
     41  NE       -53.1470   96.3280   23.4160 N.pl3 120  ARG120     -0.0865
     42  CZ       -54.2380   95.5910   23.6480 C.cat 120  ARG120      0.5346
     43  NH1      -54.1510   94.2690   23.7200 N.pl3 120  ARG120      0.1354
     44  NH2      -55.4220   96.1750   23.8000 N.pl3 120  ARG120      0.1354
     45  N        -55.5090   86.8490   15.4770 N.3   140  HIS140     -0.1241
     46  CA       -54.3590   85.9620   15.6540 C.3   140  HIS140      0.1621
     47  C        -54.4400   84.8320   14.6370 C.2   140  HIS140      0.2264
     48  O        -53.4250   84.4320   14.0630 O.2   140  HIS140     -0.2867
     49  CB       -54.2830   85.3810   17.0690 C.3   140  HIS140      0.0745
     50  CG       -54.0050   86.4030   18.1270 C.ar  140  HIS140      0.0817
     51  ND1      -53.1280   87.4490   17.9340 N.ar  140  HIS140     -0.2268
     52  CD2      -54.4850   86.5390   19.3870 C.ar  140  HIS140      0.1154
     53  CE1      -53.0810   88.1860   19.0300 C.ar  140  HIS140      0.1986
     54  NE2      -53.8950   87.6560   19.9270 N.ar  140  HIS140     -0.2212
     55  N        -46.9190   82.9540   19.3360 N.3   184  TYR184     -0.1241
     56  CA       -47.0140   83.8430   18.1930 C.3   184  TYR184      0.1605
     57  C        -45.6790   83.8210   17.4420 C.2   184  TYR184      0.2264
     58  O        -45.6620   83.7960   16.2180 O.2   184  TYR184     -0.2867
     59  CB       -47.4030   85.2750   18.6230 C.3   184  TYR184      0.0534
     60  CG       -48.7310   85.3450   19.3530 C.ar  184  TYR184     -0.0201
     61  CD1      -49.8910   84.7670   18.8000 C.ar  184  TYR184     -0.0009
     62  CD2      -48.8250   85.9240   20.6220 C.ar  184  TYR184     -0.0009
     63  CE1      -51.1080   84.7560   19.5020 C.ar  184  TYR184      0.0417
     64  CE2      -50.0360   85.9180   21.3280 C.ar  184  TYR184      0.0417
     65  CZ       -51.1690   85.3300   20.7650 C.ar  184  TYR184      0.1957
     66  OH       -52.3530   85.2950   21.4750 O.3   184  TYR184     -0.2866
     67  N        -50.2960   82.0440   24.9020 N.3   317  GLN317     -0.1245
     68  CA       -49.7370   83.2620   25.4670 C.3   317  GLN317      0.1566
     69  C        -50.0230   83.3870   26.9660 C.2   317  GLN317      0.2260
     70  O        -51.1400   83.1550   27.4230 O.2   317  GLN317     -0.2867
     71  CB       -50.2830   84.4860   24.7340 C.3   317  GLN317      0.0367
     72  CG       -50.1220   85.7380   25.5520 C.3   317  GLN317      0.0905
     73  CD       -50.5280   86.9740   24.8110 C.2   317  GLN317      0.2608
     74  OE1      -51.5440   86.9930   24.1070 O.2   317  GLN317     -0.2717
     75  NE2      -49.7440   88.0320   24.9730 N.am  317  GLN317     -0.0878
     76  N        -50.2460   85.5740   30.5350 N.3   319  PHE319     -0.1241
     77  CA       -50.5840   86.9290   30.9630 C.3   319  PHE319      0.1605
     78  C        -50.0660   87.3400   32.3540 C.2   319  PHE319      0.2264
     79  O        -50.4850   88.3620   32.9040 O.2   319  PHE319     -0.2867
     80  CB       -52.1010   87.1330   30.8670 C.3   319  PHE319      0.0534
     81  CG       -52.5790   87.4910   29.4790 C.ar  319  PHE319     -0.0203
     82  CD1      -52.8900   88.8100   29.1530 C.ar  319  PHE319     -0.0042
     83  CD2      -52.7100   86.5140   28.4960 C.ar  319  PHE319     -0.0042
     84  CE1      -53.3240   89.1450   27.8680 C.ar  319  PHE319     -0.0003
     85  CE2      -53.1430   86.8420   27.2110 C.ar  319  PHE319     -0.0003
     86  CZ       -53.4510   88.1560   26.8960 C.ar  319  PHE319     -0.0000
     87  N        -57.7200   95.9900   19.8880 N.3   382  ALA382     -0.1245
     88  CA       -56.9950   94.8860   19.2690 C.3   382  ALA382      0.1562
     89  C        -57.9710   93.7740   18.9070 C.2   382  ALA382      0.2260
     90  O        -58.8980   93.4710   19.6620 O.2   382  ALA382     -0.2867
     91  CB       -55.9530   94.3650   20.2200 C.3   382  ALA382      0.0290
     92  N        -57.1040   90.5520   18.3970 N.3   384  GLY384     -0.1210
     93  CA       -56.7880   89.3540   19.1510 C.3   384  GLY384      0.1956
     94  C        -57.4250   88.1130   18.5640 C.2   384  GLY384      0.2612
     95  O        -57.4650   87.9510   17.3470 O.2   384  GLY384     -0.2717
     96  N        -57.9240   87.2310   19.4240 N.am  385  GLY385     -0.1956
     97  CA       -58.5590   86.0160   18.9430 C.3   385  GLY385      0.1869
     98  C        -60.0640   86.0970   19.0700 C.2   385  GLY385      0.2309
     99  O        -60.7790   85.1060   18.8820 O.2   385  GLY385     -0.2863
@<TRIPOS>BOND
     1    48    47    2
     2    47    46    1
     3    28    29    1
     4    45    46    1
     5    46    49    1
     6    29    30    1
     7    29    32    1
     8    58    57    2
     9    31    30    2
    10    49    50    1
    11    32    33    1
    12    22    23    1
    13    95    94    2
    14    57    56    1
    15    23    24    1
    16    23    26    1
    17    51    50   ar
    18    51    53   ar
    19    50    52   ar
    20    56    59    1
    21    56    55    1
    22    24    25    2
    23    92    93    1
    24    94    93    1
    25    94    96   am
    26    59    60    1
    27    61    60   ar
    28    61    63   ar
    29    99    98    2
    30    89    88    1
    31    89    90    2
    32    97    98    1
    33    97    96    1
    34    53    54   ar
    35    26    27    1
    36    88    87    1
    37    88    91    1
    38    60    62   ar
    39    52    54   ar
    40    63    65   ar
    41     7     9   ar
    42     7     6   ar
    43    34    35    1
    44     9    10   ar
    45     1     2    1
    46    37    36    2
    47    62    64   ar
    48    65    64   ar
    49    65    66    1
    50     6     5    1
    51     6     8   ar
    52     5     2    1
    53    36    35    1
    54    10     8   ar
    55    35    38    1
    56     2     3    1
    57    38    39    1
    58    39    40    1
    59     3     4    2
    60    40    41    1
    61    41    42    2
    62    42    43    1
    63    42    44    1
    64    74    73    2
    65    71    68    1
    66    71    72    1
    67    73    75   am
    68    73    72    1
    69    67    68    1
    70    14    13    2
    71    68    69    1
    72    11    12    1
    73    12    13    1
    74    12    15    1
    75    16    15    1
    76    16    17    1
    77    86    85   ar
    78    86    84   ar
    79    69    70    2
    80    85    83   ar
    81    17    18    1
    82    84    82   ar
    83    83    81   ar
    84    18    19    2
    85    82    81   ar
    86    21    19    1
    87    81    80    1
    88    19    20    1
    89    76    77    1
    90    80    77    1
    91    77    78    1
    92    78    79    2
