@<TRIPOS>MOLECULE
tmp/2hj3A00.pdb
 242 236 0 0 0
SMALL
GASTEIGER

@<TRIPOS>ATOM
      1  N         10.6650  -40.8490   -5.0460 N.3     4  LYS4       -0.1231
      2  CA         9.6130  -40.3030   -4.2060 C.3     4  LYS4        0.1693
      3  C          9.8820  -40.6960   -2.7520 C.2     4  LYS4        0.2591
      4  O          9.6370  -39.9170   -1.8280 O.2     4  LYS4       -0.2718
      5  CB         8.2640  -40.8660   -4.6540 C.3     4  LYS4        0.0285
      6  CG         7.1080  -40.5440   -3.7320 C.3     4  LYS4        0.0035
      7  CD         5.9210  -41.4770   -3.9820 C.3     4  LYS4        0.0206
      8  CE         5.3530  -41.3210   -5.3880 C.3     4  LYS4        0.1093
      9  NZ         4.1160  -42.1410   -5.5800 N.3     4  LYS4       -0.1314
     10  N         10.3970  -41.9080   -2.5600 N.am    5  GLU5       -0.1979
     11  CA        10.6890  -42.4060   -1.2220 C.3     5  GLU5        0.1602
     12  C         11.8890  -41.7290   -0.5730 C.2     5  GLU5        0.2287
     13  O         11.8560  -41.4370    0.6200 O.2     5  GLU5       -0.2864
     14  CB        10.9080  -43.9230   -1.2430 C.3     5  GLU5        0.0415
     15  CG         9.6850  -44.7510   -1.6400 C.3     5  GLU5        0.1163
     16  CD         9.3840  -44.6890   -3.1320 C.2     5  GLU5        0.3649
     17  OE1       10.3430  -44.7560   -3.9320 O.co2   5  GLU5       -0.2457
     18  OE2        8.1950  -44.5910   -3.5090 O.co2   5  GLU5       -0.2457
     19  N         10.7680  -38.2900    0.5450 N.3     8  GLY8       -0.1210
     20  CA         9.9490  -38.4330    1.7360 C.3     8  GLY8        0.1956
     21  C         10.7580  -38.6620    2.9930 C.2     8  GLY8        0.2611
     22  O         10.5550  -37.9690    3.9870 O.2     8  GLY8       -0.2717
     23  N         11.6850  -39.6150    2.9560 N.am    9  ARG9       -0.1979
     24  CA        12.5140  -39.9210    4.1270 C.3     9  ARG9        0.1597
     25  C         13.3680  -38.7480    4.5650 C.2     9  ARG9        0.2287
     26  O         13.5410  -38.5080    5.7620 O.2     9  ARG9       -0.2864
     27  CB        13.4300  -41.1220    3.8600 C.3     9  ARG9        0.0334
     28  CG        12.7540  -42.4790    3.9850 C.3     9  ARG9        0.0492
     29  CD        13.7730  -43.6110    3.8810 C.3     9  ARG9        0.2205
     30  NE        14.1760  -43.8860    2.5020 N.pl3   9  ARG9       -0.0865
     31  CZ        13.4780  -44.6380    1.6520 C.cat   9  ARG9        0.5346
     32  NH1       12.3350  -45.2010    2.0430 N.pl3   9  ARG9        0.1354
     33  NH2       13.9150  -44.8200    0.4080 N.pl3   9  ARG9        0.1354
     34  N         12.7770  -35.4710    3.9080 N.3    11  THR11      -0.1203
     35  CA        11.9040  -34.4360    4.4230 C.3    11  THR11       0.1994
     36  C         11.3600  -34.7510    5.8190 C.2    11  THR11       0.2618
     37  O         11.3750  -33.8900    6.7030 O.2    11  THR11      -0.2717
     38  CB        10.7380  -34.1840    3.4520 C.3    11  THR11       0.1784
     39  OG1       11.2620  -33.8400    2.1570 O.3    11  THR11      -0.2211
     40  CG2        9.8690  -33.0370    3.9570 C.3    11  THR11       0.0376
     41  N         10.8830  -35.9770    6.0340 N.am   12  TRP12      -0.1961
     42  CA        10.3690  -36.3330    7.3560 C.3    12  TRP12       0.1771
     43  C         11.4680  -36.1270    8.4060 C.2    12  TRP12       0.2620
     44  O         11.2180  -35.5550    9.4750 O.2    12  TRP12      -0.2715
     45  CB         9.8530  -37.7840    7.3790 C.3    12  TRP12       0.0590
     46  CG         8.5450  -37.9760    6.6520 C.ar   12  TRP12       0.0006
     47  CD1        8.2870  -38.8740    5.6520 C.ar   12  TRP12       0.0946
     48  CD2        7.3200  -37.2460    6.8590 C.ar   12  TRP12       0.0152
     49  NE1        6.9830  -38.7460    5.2190 N.ar   12  TRP12      -0.2442
     50  CE2        6.3670  -37.7570    5.9430 C.ar   12  TRP12       0.0810
     51  CE3        6.9350  -36.2110    7.7270 C.ar   12  TRP12       0.0012
     52  CZ2        5.0500  -37.2630    5.8680 C.ar   12  TRP12       0.0191
     53  CZ3        5.6170  -35.7180    7.6520 C.ar   12  TRP12       0.0001
     54  CH2        4.6970  -36.2470    6.7260 C.ar   12  TRP12       0.0015
     55  N         12.6860  -36.5640    8.0950 N.am   13  THR13      -0.1951
     56  CA        13.8130  -36.3950    9.0180 C.3    13  THR13       0.1897
     57  C         13.9820  -34.9180    9.3730 C.2    13  THR13       0.2313
     58  O         14.1510  -34.5510   10.5380 O.2    13  THR13      -0.2863
     59  CB        15.1300  -36.9030    8.3920 C.3    13  THR13       0.1794
     60  OG1       15.0440  -38.3210    8.1980 O.3    13  THR13      -0.2208
     61  CG2       16.3170  -36.5930    9.2980 C.3    13  THR13       0.0378
     62  N         11.6630  -32.4450    8.9550 N.3    15  LEU15      -0.1231
     63  CA        10.4850  -31.9830    9.6840 C.3    15  LEU15       0.1693
     64  C         10.4230  -32.4740   11.1360 C.2    15  LEU15       0.2592
     65  O         10.2880  -31.6700   12.0570 O.2    15  LEU15      -0.2718
     66  CB         9.2120  -32.3730    8.9250 C.3    15  LEU15       0.0284
     67  CG         9.0580  -31.5880    7.6070 C.3    15  LEU15       0.0019
     68  CD1        7.8330  -32.0820    6.8140 C.3    15  LEU15       0.0001
     69  CD2        8.9290  -30.1040    7.9250 C.3    15  LEU15       0.0001
     70  N         10.5280  -33.7790   11.3570 N.am   16  HIS16      -0.1976
     71  CA        10.4800  -34.2770   12.7300 C.3    16  HIS16       0.1656
     72  C         11.6580  -33.7800   13.5610 C.2    16  HIS16       0.2291
     73  O         11.5080  -33.5150   14.7540 O.2    16  HIS16      -0.2864
     74  CB        10.4170  -35.8070   12.7550 C.3    16  HIS16       0.0771
     75  CG         9.1440  -36.3600   12.1930 C.ar   16  HIS16       0.0820
     76  ND1        7.9050  -36.0500   12.7140 N.ar   16  HIS16      -0.2267
     77  CD2        8.9120  -37.1660   11.1290 C.ar   16  HIS16       0.1154
     78  CE1        6.9660  -36.6350   11.9930 C.ar   16  HIS16       0.1986
     79  NE2        7.5500  -37.3190   11.0250 N.ar   16  HIS16      -0.2212
     80  N          5.1810  -25.8590    2.0270 N.3    41  LEU41      -0.1245
     81  CA         5.2940  -27.2690    1.6380 C.3    41  LEU41       0.1561
     82  C          4.0370  -27.7740    0.9360 C.2    41  LEU41       0.2260
     83  O          4.1200  -28.5710    0.0010 O.2    41  LEU41      -0.2867
     84  CB         5.5500  -28.1640    2.8560 C.3    41  LEU41       0.0270
     85  CG         6.9500  -28.2030    3.4590 C.3    41  LEU41       0.0019
     86  CD1        6.9310  -29.0670    4.7030 C.3    41  LEU41       0.0001
     87  CD2        7.9360  -28.7580    2.4530 C.3    41  LEU41       0.0001
     88  N          6.0960  -28.9370   -2.1640 N.3    45  TYR45      -0.1241
     89  CA         6.6820  -30.2700   -2.0550 C.3    45  TYR45       0.1605
     90  C          6.8510  -30.8920   -3.4450 C.2    45  TYR45       0.2264
     91  O          5.8820  -31.0470   -4.1860 O.2    45  TYR45      -0.2867
     92  CB         5.8220  -31.1670   -1.1680 C.3    45  TYR45       0.0534
     93  CG         6.5150  -32.4560   -0.7960 C.ar   45  TYR45      -0.0201
     94  CD1        7.6810  -32.4430   -0.0290 C.ar   45  TYR45      -0.0009
     95  CD2        6.0280  -33.6820   -1.2340 C.ar   45  TYR45      -0.0009
     96  CE1        8.3440  -33.6210    0.2940 C.ar   45  TYR45       0.0417
     97  CE2        6.6880  -34.8700   -0.9230 C.ar   45  TYR45       0.0417
     98  CZ         7.8450  -34.8340   -0.1580 C.ar   45  TYR45       0.1957
     99  OH         8.5080  -36.0030    0.1400 O.3    45  TYR45      -0.2866
    100  N          1.3690  -35.4920   -6.4450 N.3    49  GLU49      -0.1231
    101  CA         0.2910  -36.0540   -5.6360 C.3    49  GLU49       0.1699
    102  C          0.5230  -35.8580   -4.1380 C.2    49  GLU49       0.2592
    103  O         -0.3980  -35.4980   -3.3980 O.2    49  GLU49      -0.2718
    104  CB         0.1410  -37.5480   -5.9230 C.3    49  GLU49       0.0402
    105  CG         1.3970  -38.3390   -5.6030 C.3    49  GLU49       0.1161
    106  CD         1.1400  -39.8240   -5.4480 C.2    49  GLU49       0.3649
    107  OE1        0.6350  -40.4440   -6.4100 O.co2  49  GLU49      -0.2457
    108  OE2        1.4480  -40.3690   -4.3640 O.co2  49  GLU49      -0.2457
    109  N          1.7510  -36.1070   -3.6950 N.am   50  CYS50      -0.1970
    110  CA         2.0970  -35.9660   -2.2860 C.3    50  CYS50       0.1712
    111  C          1.7470  -34.5720   -1.7770 C.2    50  CYS50       0.2296
    112  O          1.2620  -34.4100   -0.6550 O.2    50  CYS50      -0.2864
    113  CB         3.5900  -36.1830   -2.0730 C.3    50  CYS50       0.0983
    114  SG         4.3800  -37.6580   -2.7980 S.3    50  CYS50      -0.0798
    115  N         -2.1060  -34.1440   -1.3190 N.3    53  HIS53      -0.1226
    116  CA        -2.5680  -34.8040   -0.1010 C.3    53  HIS53       0.1752
    117  C         -2.2210  -33.9930    1.1300 C.2    53  HIS53       0.2596
    118  O         -3.0470  -33.8340    2.0330 O.2    53  HIS53      -0.2718
    119  CB        -1.9530  -36.1960    0.0180 C.3    53  HIS53       0.0759
    120  CG        -2.5110  -37.1830   -0.9580 C.ar   53  HIS53       0.0818
    121  ND1       -2.0080  -38.4590   -1.0950 N.ar   53  HIS53      -0.2268
    122  CD2       -3.5300  -37.0820   -1.8420 C.ar   53  HIS53       0.1154
    123  CE1       -2.6920  -39.1010   -2.0250 C.ar   53  HIS53       0.1986
    124  NE2       -3.6210  -38.2870   -2.4940 N.ar   53  HIS53      -0.2212
    125  N         -0.9960  -33.4790    1.1590 N.am   54  PHE54      -0.1976
    126  CA        -0.5380  -32.6730    2.2840 C.3    54  PHE54       0.1639
    127  C         -1.4150  -31.4360    2.3910 C.2    54  PHE54       0.2290
    128  O         -1.7580  -30.9970    3.4910 O.2    54  PHE54      -0.2864
    129  CB         0.9270  -32.2640    2.0910 C.3    54  PHE54       0.0560
    130  CG         1.5510  -31.6580    3.3140 C.ar   54  PHE54      -0.0200
    131  CD1        1.7840  -32.4330    4.4490 C.ar   54  PHE54      -0.0042
    132  CD2        1.8890  -30.3110    3.3440 C.ar   54  PHE54      -0.0042
    133  CE1        2.3470  -31.8680    5.5990 C.ar   54  PHE54      -0.0003
    134  CE2        2.4480  -29.7370    4.4810 C.ar   54  PHE54      -0.0003
    135  CZ         2.6760  -30.5150    5.6070 C.ar   54  PHE54      -0.0000
    136  N          3.3660  -35.7830   13.7730 N.3    76  CYS76      -0.1235
    137  CA         3.3000  -37.2400   13.8150 C.3    76  CYS76       0.1677
    138  C          1.9500  -37.7200   13.2980 C.2    76  CYS76       0.2270
    139  O          1.8660  -38.7360   12.5960 O.2    76  CYS76      -0.2867
    140  CB         3.5260  -37.7350   15.2450 C.3    76  CYS76       0.0956
    141  SG         3.2660  -39.5220   15.5030 S.3    76  CYS76      -0.0801
    142  N          1.9670  -37.2940    9.5640 N.3    79  HIS79      -0.1226
    143  CA         2.7440  -38.3710    8.9650 C.3    79  HIS79       0.1752
    144  C          1.9430  -39.6810    8.9820 C.2    79  HIS79       0.2596
    145  O          2.0230  -40.4740    8.0430 O.2    79  HIS79      -0.2718
    146  CB         4.0650  -38.5390    9.7160 C.3    79  HIS79       0.0759
    147  CG         5.0740  -39.3780    8.9950 C.ar   79  HIS79       0.0818
    148  ND1        6.3780  -39.5070    9.4280 N.ar   79  HIS79      -0.2268
    149  CD2        4.9790  -40.1160    7.8650 C.ar   79  HIS79       0.1154
    150  CE1        7.0420  -40.2850    8.5920 C.ar   79  HIS79       0.1986
    151  NE2        6.2170  -40.6670    7.6340 N.ar   79  HIS79      -0.2212
    152  N          1.1610  -39.9090   10.0340 N.am   80  ASN80      -0.1974
    153  CA         0.3660  -41.1410   10.1020 C.3    80  ASN80       0.1688
    154  C         -0.7440  -41.2100    9.0560 C.2    80  ASN80       0.2292
    155  O         -1.0380  -42.2790    8.5290 O.2    80  ASN80      -0.2864
    156  CB        -0.2240  -41.3400   11.4990 C.3    80  ASN80       0.1181
    157  CG         0.7680  -41.9530   12.4500 C.2    80  ASN80       0.2629
    158  OD1        1.6020  -42.7510   12.0420 O.2    80  ASN80      -0.2716
    159  ND2        0.6770  -41.6050   13.7220 N.am   80  ASN80      -0.0877
    160  N         -0.5680  -40.1290    6.1500 N.3    82  VAL82      -0.1231
    161  CA         0.0960  -40.5510    4.9290 C.3    82  VAL82       0.1692
    162  C          0.4090  -42.0450    5.0520 C.2    82  VAL82       0.2592
    163  O          0.1310  -42.8140    4.1330 O.2    82  VAL82      -0.2718
    164  CB         1.3950  -39.7500    4.6850 C.3    82  VAL82       0.0266
    165  CG1        2.0920  -40.2600    3.4270 C.3    82  VAL82       0.0020
    166  CG2        1.0690  -38.2640    4.5300 C.3    82  VAL82       0.0020
    167  N          0.9630  -42.4570    6.1940 N.am   83  ASN83      -0.1974
    168  CA         1.2740  -43.8710    6.4190 C.3    83  ASN83       0.1688
    169  C          0.0440  -44.7470    6.1750 C.2    83  ASN83       0.2292
    170  O          0.1110  -45.7450    5.4580 O.2    83  ASN83      -0.2864
    171  CB         1.7650  -44.1160    7.8510 C.3    83  ASN83       0.1181
    172  CG         3.1700  -43.5900    8.0960 C.2    83  ASN83       0.2629
    173  OD1        3.9860  -43.5060    7.1820 O.2    83  ASN83      -0.2716
    174  ND2        3.4620  -43.2610    9.3430 N.am   83  ASN83      -0.0877
    175  N         -1.0650  -45.2270    2.6450 N.3    86  LEU86      -0.1245
    176  CA        -0.1320  -46.0730    1.9100 C.3    86  LEU86       0.1561
    177  C         -0.0290  -47.4960    2.4440 C.2    86  LEU86       0.2260
    178  O          0.8120  -48.2710    1.9860 O.2    86  LEU86      -0.2867
    179  CB         1.2600  -45.4470    1.9330 C.3    86  LEU86       0.0270
    180  CG         1.4490  -44.1410    1.1660 C.3    86  LEU86       0.0019
    181  CD1        2.8910  -43.6640    1.3250 C.3    86  LEU86       0.0001
    182  CD2        1.1030  -44.3690   -0.2990 C.3    86  LEU86       0.0001
    183  N          0.9660  -48.4560    5.4420 N.3    88  LYS88      -0.1231
    184  CA         2.1910  -48.6000    6.2200 C.3    88  LYS88       0.1693
    185  C          1.8420  -48.5660    7.7030 C.2    88  LYS88       0.2591
    186  O          0.7420  -48.1520    8.0770 O.2    88  LYS88      -0.2718
    187  CB         3.1590  -47.4580    5.9070 C.3    88  LYS88       0.0285
    188  CG         3.8270  -47.5180    4.5460 C.3    88  LYS88       0.0035
    189  CD         4.7180  -46.2930    4.3610 C.3    88  LYS88       0.0206
    190  CE         5.7200  -46.4810    3.2400 C.3    88  LYS88       0.1093
    191  NZ         6.6850  -47.5880    3.5280 N.3    88  LYS88      -0.1314
    192  N          2.7720  -49.0040    8.5450 N.am   89  LEU89      -0.1980
    193  CA         2.5530  -48.9980    9.9860 C.3    89  LEU89       0.1596
    194  C          2.2580  -47.5720   10.4590 C.2    89  LEU89       0.2287
    195  O          2.7240  -46.6020    9.8530 O.2    89  LEU89      -0.2864
    196  CB         3.7960  -49.5300   10.6990 C.3    89  LEU89       0.0297
    197  CG         4.0900  -51.0310   10.5850 C.3    89  LEU89       0.0022
    198  CD1        5.5450  -51.3030   10.9280 C.3    89  LEU89       0.0001
    199  CD2        3.1600  -51.8040   11.5210 C.3    89  LEU89       0.0001
    200  N          2.6750  -44.9700   13.5170 N.3    91  PHE91      -0.1241
    201  CA         3.5530  -44.7040   14.6500 C.3    91  PHE91       0.1605
    202  C          2.8210  -44.1450   15.8630 C.2    91  PHE91       0.2264
    203  O          1.9630  -43.2830   15.7210 O.2    91  PHE91      -0.2867
    204  CB         4.6370  -43.7170   14.1760 C.3    91  PHE91       0.0534
    205  CG         5.7270  -43.4600   15.1750 C.ar   91  PHE91      -0.0203
    206  CD1        6.9050  -44.1990   15.1450 C.ar   91  PHE91      -0.0042
    207  CD2        5.5920  -42.4550   16.1310 C.ar   91  PHE91      -0.0042
    208  CE1        7.9360  -43.9360   16.0530 C.ar   91  PHE91      -0.0003
    209  CE2        6.6190  -42.1860   17.0450 C.ar   91  PHE91      -0.0003
    210  CZ         7.7870  -42.9240   17.0040 C.ar   91  PHE91      -0.0000
    211  N          7.1670  -40.0480   19.7830 N.3    96  VAL96      -0.1245
    212  CA         7.9120  -39.1990   18.8440 C.3    96  VAL96       0.1561
    213  C          9.1840  -38.6650   19.4620 C.2    96  VAL96       0.2260
    214  O         10.2360  -38.7100   18.8360 O.2    96  VAL96      -0.2867
    215  CB         7.1110  -37.9740   18.3180 C.3    96  VAL96       0.0252
    216  CG1        6.5330  -38.2880   16.9540 C.3    96  VAL96       0.0019
    217  CG2        6.0360  -37.5780   19.2970 C.3    96  VAL96       0.0019
    218  N         11.8210  -41.1440   19.3850 N.3    99  ARG99      -0.1231
    219  CA        12.3290  -41.3940   18.0410 C.3    99  ARG99       0.1694
    220  C         13.1120  -40.1900   17.4870 C.2    99  ARG99       0.2592
    221  O         14.0550  -40.3610   16.7080 O.2    99  ARG99      -0.2718
    222  CB        11.1630  -41.7470   17.1040 C.3    99  ARG99       0.0321
    223  CG        11.5390  -41.8380   15.6310 C.3    99  ARG99       0.0489
    224  CD        12.4340  -43.0350   15.3270 C.3    99  ARG99       0.2205
    225  NE        12.9400  -43.0070   13.9540 N.pl3  99  ARG99      -0.0865
    226  CZ        13.9680  -42.2620   13.5490 C.cat  99  ARG99       0.5346
    227  NH1       14.6100  -41.4830   14.4110 N.pl3  99  ARG99       0.1354
    228  NH2       14.3510  -42.2880   12.2770 N.pl3  99  ARG99       0.1354
    229  N         12.7210  -38.9800   17.8850 N.am  100  TRP100     -0.1976
    230  CA        13.4020  -37.7660   17.4310 C.3   100  TRP100      0.1640
    231  C         13.7910  -36.8880   18.6210 C.2   100  TRP100      0.2290
    232  O         12.9360  -36.2570   19.2430 O.2   100  TRP100     -0.2864
    233  CB        12.5090  -36.9620   16.4740 C.3   100  TRP100      0.0576
    234  CG        11.9220  -37.7640   15.3460 C.ar  100  TRP100      0.0006
    235  CD1       10.6730  -38.3200   15.3000 C.ar  100  TRP100      0.0946
    236  CD2       12.5670  -38.1260   14.1080 C.ar  100  TRP100      0.0152
    237  NE1       10.5030  -39.0030   14.1160 N.ar  100  TRP100     -0.2442
    238  CE2       11.6460  -38.9000   13.3670 C.ar  100  TRP100      0.0810
    239  CE3       13.8330  -37.8720   13.5560 C.ar  100  TRP100      0.0012
    240  CZ2       11.9470  -39.4200   12.1030 C.ar  100  TRP100      0.0191
    241  CZ3       14.1290  -38.3920   12.2960 C.ar  100  TRP100      0.0001
    242  CH2       13.1900  -39.1550   11.5860 C.ar  100  TRP100      0.0015
@<TRIPOS>BOND
     1   100   101    1
     2   107   106   ar
     3   104   101    1
     4   104   105    1
     5   101   102    1
     6   105   106    1
     7     9     8    1
     8   106   108   ar
     9     8     7    1
    10     1     2    1
    11     5     2    1
    12     5     6    1
    13     2     3    1
    14    91    90    2
    15   102   109   am
    16   102   103    2
    17     7     6    1
    18    17    16   ar
    19   109   110    1
    20    18    16   ar
    21    90    89    1
    22    16    15    1
    23   114   113    1
    24     3    10   am
    25     3     4    2
    26    10    11    1
    27   124   123   ar
    28   124   122   ar
    29   110   113    1
    30   110   111    1
    31    88    89    1
    32    89    92    1
    33   123   121   ar
    34   122   120   ar
    35   111   112    2
    36    15    14    1
    37   115   116    1
    38    14    11    1
    39    95    97   ar
    40    95    93   ar
    41    11    12    1
    42    92    93    1
    43   121   120   ar
    44   120   119    1
    45    97    98   ar
    46    93    94   ar
    47    12    13    2
    48   182   180    1
    49    98    99    1
    50    98    96   ar
    51   116   119    1
    52   116   117    1
    53    94    96   ar
    54    83    82    2
    55    33    31    1
    56    19    20    1
    57    82    81    1
    58   117   125   am
    59   117   118    2
    60   125   126    1
    61   180   181    1
    62   180   179    1
    63    81    80    1
    64    81    84    1
    65    31    32    1
    66    31    30    2
    67    20    21    1
    68   176   179    1
    69   176   177    1
    70   176   175    1
    71   178   177    2
    72   129   126    1
    73   129   130    1
    74    39    38    1
    75   126   127    1
    76   127   128    2
    77    87    85    1
    78    30    29    1
    79    84    85    1
    80    23    21   am
    81    23    24    1
    82    21    22    2
    83   190   191    1
    84   190   189    1
    85   130   132   ar
    86   130   131   ar
    87   132   134   ar
    88   165   164    1
    89    38    40    1
    90    38    35    1
    91    85    86    1
    92    27    28    1
    93    27    24    1
    94    29    28    1
    95    34    35    1
    96    24    25    1
    97   163   162    2
    98   189   188    1
    99    35    36    1
   100   131   133   ar
   101   134   135   ar
   102   166   164    1
   103   188   187    1
   104    25    26    2
   105   164   161    1
   106   161   162    1
   107   161   160    1
   108   162   167   am
   109    49    47   ar
   110    49    50   ar
   111   183   184    1
   112   170   169    2
   113   133   135   ar
   114    47    46   ar
   115    36    41   am
   116    36    37    2
   117    52    50   ar
   118    52    54   ar
   119   187   184    1
   120    50    48   ar
   121    41    42    1
   122   169   168    1
   123   167   168    1
   124   184   185    1
   125   168   171    1
   126    46    48   ar
   127    46    45    1
   128    54    53   ar
   129    68    67    1
   130    48    51   ar
   131   173   172    2
   132    42    45    1
   133    42    43    1
   134    67    69    1
   135    67    66    1
   136   151   149   ar
   137   151   150   ar
   138    53    51   ar
   139   185   186    2
   140   185   192   am
   141   171   172    1
   142   149   147   ar
   143   145   144    2
   144    55    43   am
   145    55    56    1
   146   172   174   am
   147    60    59    1
   148    59    56    1
   149    59    61    1
   150    43    44    2
   151   155   154    2
   152   192   193    1
   153   150   148   ar
   154    66    63    1
   155    62    63    1
   156   143   144    1
   157   143   142    1
   158   143   146    1
   159   144   152   am
   160   147   148   ar
   161   147   146    1
   162    56    57    1
   163   154   153    1
   164    57    58    2
   165    63    64    1
   166   195   194    2
   167   193   194    1
   168   193   196    1
   169   152   153    1
   170   153   156    1
   171   197   196    1
   172   197   198    1
   173   197   199    1
   174    79    77   ar
   175    79    78   ar
   176    77    75   ar
   177    64    70   am
   178    64    65    2
   179    70    71    1
   180   156   157    1
   181   242   240   ar
   182   242   241   ar
   183    78    76   ar
   184   158   157    2
   185   240   238   ar
   186    75    76   ar
   187    75    74    1
   188   228   226    1
   189   241   239   ar
   190   157   159   am
   191   139   138    2
   192    71    74    1
   193    71    72    1
   194   138   137    1
   195   238   236   ar
   196   238   237   ar
   197   200   201    1
   198   226   225    2
   199   226   227    1
   200   239   236   ar
   201    72    73    2
   202   136   137    1
   203   137   140    1
   204   225   224    1
   205   236   234   ar
   206   237   235   ar
   207   204   201    1
   208   204   205    1
   209   201   202    1
   210   206   205   ar
   211   206   208   ar
   212   205   207   ar
   213   140   141    1
   214   235   234   ar
   215   224   223    1
   216   234   233    1
   217   223   222    1
   218   203   202    2
   219   208   210   ar
   220   207   209   ar
   221   233   230    1
   222   221   220    2
   223   216   215    1
   224   210   209   ar
   225   222   219    1
   226   230   229    1
   227   230   231    1
   228   220   229   am
   229   220   219    1
   230   219   218    1
   231   215   212    1
   232   215   217    1
   233   231   232    2
   234   214   213    2
   235   212   213    1
   236   212   211    1
