@<TRIPOS>MOLECULE
tmp/2hj4D01.pdb
 76 71 0 0 0
SMALL
GASTEIGER

@<TRIPOS>ATOM
      1  N         30.8370   16.2330   21.5850 N.3    23  SER23      -0.1217
      2  CA        30.2030   16.7130   22.8260 C.3    23  SER23       0.1889
      3  C         31.1780   16.6120   23.9850 C.2    23  SER23       0.2288
      4  O         31.0540   17.3570   24.9120 O.2    23  SER23      -0.2866
      5  CB        28.9370   15.9270   23.1810 C.3    23  SER23       0.2089
      6  OG        29.2260   14.5690   23.5160 O.3    23  SER23      -0.2183
      7  N         31.1540   14.4660   26.3380 N.3    25  PHE25      -0.1241
      8  CA        30.1770   14.3980   27.4200 C.3    25  PHE25       0.1605
      9  C         30.8100   14.1890   28.8040 C.2    25  PHE25       0.2264
     10  O         30.3260   14.7480   29.7830 O.2    25  PHE25      -0.2867
     11  CB        29.1700   13.2830   27.1280 C.3    25  PHE25       0.0534
     12  CG        27.9990   13.2710   28.0580 C.ar   25  PHE25      -0.0203
     13  CD1       27.0110   14.2390   27.9570 C.ar   25  PHE25      -0.0042
     14  CD2       27.8690   12.2860   29.0360 C.ar   25  PHE25      -0.0042
     15  CE1       25.9140   14.2390   28.8360 C.ar   25  PHE25      -0.0003
     16  CE2       26.7650   12.2780   29.8990 C.ar   25  PHE25      -0.0003
     17  CZ        25.8050   13.2630   29.7970 C.ar   25  PHE25      -0.0000
     18  N         21.6860   16.6050   23.2090 N.3   107  LEU107     -0.1245
     19  CA        22.4790   15.8830   22.2130 C.3   107  LEU107      0.1561
     20  C         22.2570   16.4850   20.8300 C.2   107  LEU107      0.2260
     21  O         21.1960   17.0820   20.5730 O.2   107  LEU107     -0.2867
     22  CB        22.1170   14.4010   22.2440 C.3   107  LEU107      0.0270
     23  CG        22.3290   13.6800   23.5880 C.3   107  LEU107      0.0019
     24  CD1       21.9870   12.2210   23.3920 C.3   107  LEU107      0.0001
     25  CD2       23.7460   13.8590   24.1270 C.3   107  LEU107      0.0001
     26  N         20.4160    8.1010   16.3280 N.3   256  TYR256     -0.1241
     27  CA        20.1650    9.4870   16.6540 C.3   256  TYR256      0.1605
     28  C         19.8480   10.2820   15.3880 C.2   256  TYR256      0.2264
     29  O         18.6580   10.4590   15.0550 O.2   256  TYR256     -0.2867
     30  CB        21.3340   10.0420   17.4860 C.3   256  TYR256      0.0534
     31  CG        21.4110    9.4330   18.8760 C.ar  256  TYR256     -0.0201
     32  CD1       22.1400    8.2710   19.1130 C.ar  256  TYR256     -0.0009
     33  CD2       20.7690   10.0310   19.9570 C.ar  256  TYR256     -0.0009
     34  CE1       22.2180    7.7010   20.3980 C.ar  256  TYR256      0.0417
     35  CE2       20.8570    9.4720   21.2730 C.ar  256  TYR256      0.0417
     36  CZ        21.5620    8.3130   21.4600 C.ar  256  TYR256      0.1957
     37  OH        21.6600    7.7580   22.7140 O.3   256  TYR256     -0.2866
     38  N         25.5890    5.2450   14.7710 N.3   308  LEU308     -0.1245
     39  CA        24.4920    5.8860   15.4630 C.3   308  LEU308      0.1561
     40  C         23.9290    7.0990   14.6980 C.2   308  LEU308      0.2260
     41  O         22.7580    7.4260   14.8440 O.2   308  LEU308     -0.2867
     42  CB        24.9800    6.3660   16.8360 C.3   308  LEU308      0.0270
     43  CG        25.2320    5.2660   17.8740 C.3   308  LEU308      0.0019
     44  CD1       26.0240    5.8450   19.0210 C.3   308  LEU308      0.0001
     45  CD2       23.9100    4.6690   18.3590 C.3   308  LEU308      0.0001
     46  N         29.9420    6.3130   14.7570 N.3   323  ASP323     -0.1225
     47  CA        29.5900    5.4150   15.8650 C.3   323  ASP323      0.1805
     48  C         29.8050    6.0480   17.2400 C.2   323  ASP323      0.2598
     49  O         29.6730    5.3600   18.2740 O.2   323  ASP323     -0.2718
     50  CB        30.3600    4.0840   15.7350 C.3   323  ASP323      0.1424
     51  CG        31.8760    4.2570   15.8120 C.2   323  ASP323      0.3668
     52  OD1       32.5970    3.3250   15.4010 O.co2 323  ASP323     -0.2456
     53  OD2       32.3410    5.3090   16.3010 O.co2 323  ASP323     -0.2456
     54  N         30.0810    7.3640   17.2520 N.am  324  GLY324     -0.1957
     55  CA        30.4630    8.0930   18.4620 C.3   324  GLY324      0.1869
     56  C         31.9130    8.5460   18.4830 C.2   324  GLY324      0.2309
     57  O         32.2510    9.5530   19.0890 O.2   324  GLY324     -0.2863
     58  N         32.9950   11.5760   21.7500 N.3   349  ALA349     -0.1231
     59  CA        31.5500   11.4070   21.9680 C.3   349  ALA349      0.1694
     60  C         30.7510   12.3150   21.0190 C.2   349  ALA349      0.2593
     61  O         30.1700   13.3350   21.4370 O.2   349  ALA349     -0.2718
     62  CB        31.1910   11.7030   23.4190 C.3   349  ALA349      0.0304
     63  N         30.7150   11.9190   19.7450 N.am  350  SER350     -0.1938
     64  CA        30.0410   12.7120   18.7200 C.3   350  SER350      0.2055
     65  C         28.8740   11.9270   18.1810 C.2   350  SER350      0.2642
     66  O         29.0090   10.7800   17.7810 O.2   350  SER350     -0.2714
     67  CB        30.9670   13.0330   17.5580 C.3   350  SER350      0.2130
     68  OG        30.2770   13.7670   16.5390 O.3   350  SER350     -0.2179
     69  N         27.7360   12.5810   18.1360 N.am  351  LEU351     -0.1977
     70  CA        26.5460   12.0350   17.4830 C.3   351  LEU351      0.1596
     71  C         26.1620   12.8640   16.2400 C.2   351  LEU351      0.2287
     72  O         25.0370   12.7500   15.6990 O.2   351  LEU351     -0.2864
     73  CB        25.4180   12.0120   18.5170 C.3   351  LEU351      0.0297
     74  CG        25.5820   10.9660   19.6200 C.3   351  LEU351      0.0022
     75  CD1       24.4500   11.0820   20.6280 C.3   351  LEU351      0.0001
     76  CD2       25.7150    9.5370   19.0480 C.3   351  LEU351      0.0001
@<TRIPOS>BOND
     1    40    41    2
     2    40    39    1
     3    46    47    1
     4    38    39    1
     5    29    28    2
     6    28    27    1
     7    52    51   ar
     8    39    42    1
     9    72    71    2
    10    50    51    1
    11    50    47    1
    12    51    53   ar
    13    47    48    1
    14    71    70    1
    15    26    27    1
    16    68    67    1
    17    27    30    1
    18    42    43    1
    19    48    54   am
    20    48    49    2
    21    54    55    1
    22    70    69    1
    23    70    73    1
    24    30    31    1
    25    67    64    1
    26    66    65    2
    27    43    45    1
    28    43    44    1
    29    69    65   am
    30    65    64    1
    31    55    56    1
    32    56    57    2
    33    73    74    1
    34    64    63    1
    35    31    32   ar
    36    31    33   ar
    37    76    74    1
    38    32    34   ar
    39    74    75    1
    40    63    60   am
    41    33    35   ar
    42    34    36   ar
    43    21    20    2
    44    20    19    1
    45    60    61    2
    46    60    59    1
    47    35    36   ar
    48    36    37    1
    49     1     2    1
    50    58    59    1
    51    59    62    1
    52    19    22    1
    53    19    18    1
    54    22    23    1
    55     2     5    1
    56     2     3    1
    57     5     6    1
    58    24    23    1
    59    23    25    1
    60     3     4    2
    61     7     8    1
    62    11     8    1
    63    11    12    1
    64     8     9    1
    65    13    12   ar
    66    13    15   ar
    67    12    14   ar
    68     9    10    2
    69    15    17   ar
    70    14    16   ar
    71    17    16   ar
