@<TRIPOS>MOLECULE
tmp/2hj4B00.pdb
 83 81 0 0 0
SMALL
GASTEIGER

@<TRIPOS>ATOM
      1  N         56.4930   18.2660   25.7290 N.3    26  ASP26      -0.1225
      2  CA        55.4930   17.7250   26.6170 C.3    26  ASP26       0.1805
      3  C         54.1980   18.4230   26.2150 C.2    26  ASP26       0.2598
      4  O         53.9460   19.5740   26.6180 O.2    26  ASP26      -0.2718
      5  CB        55.8450   17.9440   28.0950 C.3    26  ASP26       0.1424
      6  CG        55.0330   17.0310   29.0260 C.2    26  ASP26       0.3668
      7  OD1       53.9530   16.5600   28.6110 O.co2  26  ASP26      -0.2456
      8  OD2       55.4560   16.7820   30.1730 O.co2  26  ASP26      -0.2456
      9  N         53.4580   17.7620   25.3370 N.am   27  GLY27      -0.1957
     10  CA        52.2190   18.2910   24.7940 C.3    27  GLY27       0.1869
     11  C         51.8540   17.6330   23.4860 C.2    27  GLY27       0.2309
     12  O         52.4130   16.6070   23.1430 O.2    27  GLY27      -0.2863
     13  N         54.5170   27.2020   21.8840 N.3    69  ASP69      -0.1239
     14  CA        53.1980   26.6180   21.8820 C.3    69  ASP69       0.1674
     15  C         52.3160   27.4250   20.9580 C.2    69  ASP69       0.2266
     16  O         52.6240   28.5770   20.5900 O.2    69  ASP69      -0.2867
     17  CB        52.6000   26.6400   23.2810 C.3    69  ASP69       0.1410
     18  CG        53.2680   25.6520   24.2430 C.2    69  ASP69       0.3668
     19  OD1       53.8230   24.6290   23.8130 O.co2  69  ASP69      -0.2456
     20  OD2       53.2210   25.8970   25.4580 O.co2  69  ASP69      -0.2456
     21  N         59.6350   22.1900   31.2050 N.3    97  ASN97      -0.1225
     22  CA        58.3960   21.9800   30.4220 C.3    97  ASN97       0.1785
     23  C         57.1330   21.5300   31.1850 C.2    97  ASN97       0.2597
     24  O         56.1700   21.1690   30.5450 O.2    97  ASN97      -0.2718
     25  CB        58.6690   21.0740   29.1840 C.3    97  ASN97       0.1169
     26  CG        58.8490   19.6060   29.5310 C.2    97  ASN97       0.2627
     27  OD1       58.5870   19.1810   30.6600 O.2    97  ASN97      -0.2716
     28  ND2       59.3550   18.8190   28.5560 N.am   97  ASN97      -0.0877
     29  N         57.1210   21.5950   32.5180 N.am   98  ASP98      -0.1960
     30  CA        55.9220   21.3080   33.3200 C.3    98  ASP98       0.1840
     31  C         55.0850   22.5520   33.5710 C.2    98  ASP98       0.2622
     32  O         54.2060   22.5590   34.4370 O.2    98  ASP98      -0.2715
     33  CB        56.2870   20.7010   34.6790 C.3    98  ASP98       0.1450
     34  CG        56.9680   19.3600   34.5530 C.2    98  ASP98       0.3671
     35  OD1       56.7440   18.6740   33.5480 O.co2  98  ASP98      -0.2456
     36  OD2       57.7480   19.0260   35.4520 O.co2  98  ASP98      -0.2456
     37  N         55.4020   23.6220   32.8510 N.am   99  VAL99      -0.1963
     38  CA        54.6180   24.8270   32.8810 C.3    99  VAL99       0.1727
     39  C         54.0530   25.0940   31.4910 C.2    99  VAL99       0.2616
     40  O         54.5160   24.5570   30.4930 O.2    99  VAL99      -0.2715
     41  CB        55.4320   26.0330   33.4090 C.3    99  VAL99       0.0290
     42  CG1       55.8610   25.7820   34.8440 C.3    99  VAL99       0.0023
     43  CG2       56.6260   26.3450   32.5240 C.3    99  VAL99       0.0023
     44  N         53.0420   25.9260   31.4500 N.am  100  ASN100     -0.1958
     45  CA        52.3300   26.2380   30.2170 C.3   100  ASN100      0.1819
     46  C         53.0150   27.3990   29.4830 C.2   100  ASN100      0.2621
     47  O         52.9500   28.5170   29.9300 O.2   100  ASN100     -0.2715
     48  CB        50.9170   26.6190   30.6030 C.3   100  ASN100      0.1195
     49  CG        50.0540   26.9960   29.4240 C.2   100  ASN100      0.2630
     50  OD1       50.3260   26.6190   28.2970 O.2   100  ASN100     -0.2716
     51  ND2       49.0120   27.7510   29.6950 N.am  100  ASN100     -0.0877
     52  N         53.6620   27.1350   28.3630 N.am  101  TRP101     -0.1974
     53  CA        54.4020   28.2210   27.6930 C.3   101  TRP101      0.1640
     54  C         53.4710   29.1510   26.8840 C.2   101  TRP101      0.2290
     55  O         53.9400   30.1080   26.2850 O.2   101  TRP101     -0.2864
     56  CB        55.6170   27.7070   26.9010 C.3   101  TRP101      0.0576
     57  CG        56.7140   27.4520   27.8300 C.ar  101  TRP101      0.0006
     58  CD1       57.2570   26.2370   28.1720 C.ar  101  TRP101      0.0946
     59  CD2       57.3610   28.4290   28.6530 C.ar  101  TRP101      0.0152
     60  NE1       58.2030   26.4120   29.1780 N.ar  101  TRP101     -0.2442
     61  CE2       58.2990   27.7460   29.4700 C.ar  101  TRP101      0.0810
     62  CE3       57.2650   29.8210   28.7610 C.ar  101  TRP101      0.0012
     63  CZ2       59.1390   28.4070   30.3680 C.ar  101  TRP101      0.0191
     64  CZ3       58.1010   30.4710   29.6780 C.ar  101  TRP101      0.0001
     65  CH2       59.0060   29.7560   30.4730 C.ar  101  TRP101      0.0015
     66  N         46.0170   26.1690   26.4210 N.3   110  PHE110     -0.1241
     67  CA        47.0510   25.4220   25.7380 C.3   110  PHE110      0.1605
     68  C         46.4270   24.5130   24.6530 C.2   110  PHE110      0.2264
     69  O         45.5470   23.6780   24.9530 O.2   110  PHE110     -0.2867
     70  CB        47.8900   24.5940   26.7310 C.3   110  PHE110      0.0534
     71  CG        48.8080   23.6190   26.0480 C.ar  110  PHE110     -0.0203
     72  CD1       49.9090   24.0670   25.3270 C.ar  110  PHE110     -0.0042
     73  CD2       48.5370   22.2480   26.0580 C.ar  110  PHE110     -0.0042
     74  CE1       50.7200   23.1830   24.6590 C.ar  110  PHE110     -0.0003
     75  CE2       49.3550   21.3590   25.3890 C.ar  110  PHE110     -0.0003
     76  CZ        50.4490   21.8100   24.7040 C.ar  110  PHE110     -0.0000
     77  N         51.8980   22.1140   20.7730 N.3   113  THR113     -0.1218
     78  CA        53.3000   22.4840   20.9350 C.3   113  THR113      0.1862
     79  C         54.0330   22.2330   19.6030 C.2   113  THR113      0.2287
     80  O         53.7770   21.2250   18.8980 O.2   113  THR113     -0.2866
     81  CB        53.9960   21.6720   22.0850 C.3   113  THR113      0.1770
     82  OG1       53.3240   21.8830   23.3270 O.3   113  THR113     -0.2211
     83  CG2       55.4610   22.1180   22.2560 C.3   113  THR113      0.0375
@<TRIPOS>BOND
     1    80    79    2
     2    79    78    1
     3    16    15    2
     4    77    78    1
     5    78    81    1
     6    15    14    1
     7    14    13    1
     8    14    17    1
     9    81    83    1
    10    81    82    1
    11    12    11    2
    12    17    18    1
    13    11    10    1
    14    19    18   ar
    15    18    20   ar
    16    68    69    2
    17    68    67    1
    18    74    76   ar
    19    74    72   ar
    20    76    75   ar
    21    10     9    1
    22    72    71   ar
    23     9     3   am
    24    75    73   ar
    25     1     2    1
    26    67    66    1
    27    67    70    1
    28    71    73   ar
    29    71    70    1
    30     3     2    1
    31     3     4    2
    32    55    54    2
    33     2     5    1
    34    54    53    1
    35    56    53    1
    36    56    57    1
    37    53    52    1
    38    57    58   ar
    39    57    59   ar
    40     5     6    1
    41    58    60   ar
    42    50    49    2
    43    52    46   am
    44    28    26   am
    45     7     6   ar
    46    59    62   ar
    47    59    61   ar
    48    62    64   ar
    49     6     8   ar
    50    60    61   ar
    51    25    26    1
    52    25    22    1
    53    49    51   am
    54    49    48    1
    55    61    63   ar
    56    46    47    2
    57    46    45    1
    58    26    27    2
    59    64    65   ar
    60    45    48    1
    61    45    44    1
    62    63    65   ar
    63    22    23    1
    64    22    21    1
    65    40    39    2
    66    24    23    2
    67    23    29   am
    68    44    39   am
    69    39    38    1
    70    29    30    1
    71    43    41    1
    72    37    38    1
    73    37    31   am
    74    38    41    1
    75    30    31    1
    76    30    33    1
    77    41    42    1
    78    35    34   ar
    79    31    32    2
    80    34    33    1
    81    34    36   ar
