@<TRIPOS>MOLECULE
tmp/2hj6B13.pdb
 110 107 0 0 0
SMALL
GASTEIGER

@<TRIPOS>ATOM
      1  N         31.0970   83.6660   64.7710 N.3    26  LEU26      -0.1231
      2  CA        30.5800   82.7200   63.7490 C.3    26  LEU26       0.1693
      3  C         30.3260   83.3870   62.4100 C.2    26  LEU26       0.2592
      4  O         30.2740   82.7040   61.3760 O.2    26  LEU26      -0.2718
      5  CB        29.3050   81.9890   64.1960 C.3    26  LEU26       0.0284
      6  CG        29.2920   81.1600   65.4880 C.3    26  LEU26       0.0019
      7  CD1       27.9650   80.4190   65.5550 C.3    26  LEU26       0.0001
      8  CD2       30.4420   80.2070   65.5920 C.3    26  LEU26       0.0001
      9  N         30.1790   84.7150   62.4380 N.am   27  ALA27      -0.1966
     10  CA        30.0540   85.5210   61.2160 C.3    27  ALA27       0.1728
     11  C         31.2280   85.2580   60.2880 C.2    27  ALA27       0.2616
     12  O         31.0690   85.3130   59.0660 O.2    27  ALA27      -0.2715
     13  CB        29.9670   87.0190   61.5360 C.3    27  ALA27       0.0334
     14  N         32.3980   84.9800   60.8750 N.am   28  ASN28      -0.1958
     15  CA        33.6040   84.7440   60.1040 C.3    28  ASN28       0.1819
     16  C         33.8890   83.2510   59.7610 C.2    28  ASN28       0.2621
     17  O         34.9300   82.9530   59.1430 O.2    28  ASN28      -0.2715
     18  CB        34.7990   85.4060   60.8060 C.3    28  ASN28       0.1195
     19  CG        34.7080   86.9420   60.8160 C.2    28  ASN28       0.2630
     20  OD1       34.7740   87.5780   61.8820 O.2    28  ASN28      -0.2716
     21  ND2       34.5490   87.5450   59.6270 N.am   28  ASN28      -0.0877
     22  N         32.9870   82.3250   60.1240 N.am   29  ARG29      -0.1963
     23  CA        33.1290   80.9220   59.7220 C.3    29  ARG29       0.1729
     24  C         32.4390   80.6990   58.4270 C.2    29  ARG29       0.2617
     25  O         31.4930   81.3650   58.1670 O.2    29  ARG29      -0.2715
     26  CB        32.5280   79.9810   60.7480 C.3    29  ARG29       0.0348
     27  CG        33.5930   79.2260   61.4860 C.3    29  ARG29       0.0492
     28  CD        33.0260   78.2780   62.4880 C.3    29  ARG29       0.2205
     29  NE        33.9840   78.0880   63.5560 N.pl3  29  ARG29      -0.0865
     30  CZ        33.6720   77.7920   64.8120 C.cat  29  ARG29       0.5346
     31  NH1       32.4200   77.6520   65.2290 N.pl3  29  ARG29       0.1354
     32  NH2       34.6470   77.6630   65.6790 N.pl3  29  ARG29       0.1354
     33  N         32.9040   79.7600   57.6190 N.am   30  SER30      -0.1936
     34  CA        32.2560   79.4220   56.3530 C.3    30  SER30       0.2055
     35  C         31.2700   78.3070   56.6110 C.2    30  SER30       0.2644
     36  O         31.1010   77.8900   57.7660 O.2    30  SER30      -0.2714
     37  CB        33.2790   78.9140   55.3270 C.3    30  SER30       0.2130
     38  OG        33.6100   77.5290   55.5120 O.3    30  SER30      -0.2179
     39  N         30.6520   77.8110   55.5330 N.am   31  GLY31      -0.1939
     40  CA        29.8120   76.6050   55.5830 C.3    31  GLY31       0.2014
     41  C         30.6440   75.3430   55.3890 C.2    31  GLY31       0.2639
     42  O         31.8190   75.4120   55.0020 O.2    31  GLY31      -0.2714
     43  N         30.0580   74.1810   55.6570 N.am   32  VAL32      -0.1963
     44  CA        30.7690   72.9380   55.3680 C.3    32  VAL32       0.1727
     45  C         31.0800   72.8810   53.9070 C.2    32  VAL32       0.2617
     46  O         30.3570   73.4210   53.0930 O.2    32  VAL32      -0.2715
     47  CB        29.9540   71.6500   55.6350 C.3    32  VAL32       0.0290
     48  CG1       30.3530   71.0110   56.9800 C.3    32  VAL32       0.0023
     49  CG2       28.4490   71.9070   55.4730 C.3    32  VAL32       0.0023
     50  N         32.1450   72.1830   53.5830 N.am   33  GLY33      -0.1941
     51  CA        32.4930   71.9020   52.2070 C.3    33  GLY33       0.1998
     52  C         32.0640   70.4850   51.9440 C.2    33  GLY33       0.2480
     53  O         31.3600   69.9140   52.7860 O.2    33  GLY33      -0.2729
     54  N         32.5140   69.8990   50.8030 N.am   34  PRO34      -0.2726
     55  CA        32.1210   68.5440   50.4510 C.3    34  PRO34       0.1402
     56  C         32.7040   67.5610   51.4140 C.2    34  PRO34       0.2269
     57  O         33.5210   67.9150   52.2450 O.2    34  PRO34      -0.2865
     58  CB        32.7460   68.3460   49.0820 C.3    34  PRO34       0.0296
     59  CG        33.9410   69.2000   49.1300 C.3    34  PRO34       0.0237
     60  CD        33.4380   70.4330   49.7950 C.3    34  PRO34       0.0939
     61  N         35.3170   68.1570   54.7440 N.3    47  LEU47      -0.1231
     62  CA        36.0870   69.3500   54.5210 C.3    47  LEU47       0.1693
     63  C         35.2820   70.5410   54.9930 C.2    47  LEU47       0.2592
     64  O         34.0540   70.5030   55.0340 O.2    47  LEU47      -0.2718
     65  CB        36.4330   69.5180   53.0510 C.3    47  LEU47       0.0284
     66  CG        37.1280   68.4120   52.2230 C.3    47  LEU47       0.0019
     67  CD1       37.2610   68.9240   50.7580 C.3    47  LEU47       0.0001
     68  CD2       38.4440   68.0010   52.7780 C.3    47  LEU47       0.0001
     69  N         36.0070   71.5910   55.3770 N.am   48  GLY48      -0.1957
     70  CA        35.4400   72.8180   55.9650 C.3    48  GLY48       0.1869
     71  C         34.7790   72.5900   57.3140 C.2    48  GLY48       0.2309
     72  O         34.8860   71.4970   57.8660 O.2    48  GLY48      -0.2863
     73  N         35.6850   76.8750   57.3530 N.3    50  ILE50      -0.1245
     74  CA        36.9510   77.5530   57.6580 C.3    50  ILE50       0.1561
     75  C         36.7320   78.9410   58.2100 C.2    50  ILE50       0.2260
     76  O         35.9470   79.7080   57.6850 O.2    50  ILE50      -0.2867
     77  CB        37.8660   77.6320   56.4430 C.3    50  ILE50       0.0252
     78  CG1       39.2250   78.2020   56.8380 C.3    50  ILE50       0.0019
     79  CG2       37.2410   78.4470   55.3790 C.3    50  ILE50       0.0019
     80  CD1       40.4120   77.6460   56.0100 C.3    50  ILE50       0.0001
     81  N         37.6920   82.6470   58.7070 N.3    52  LEU52      -0.1245
     82  CA        38.3640   83.5310   57.8070 C.3    52  LEU52       0.1561
     83  C         37.9280   84.9400   58.1480 C.2    52  LEU52       0.2260
     84  O         37.0170   85.4870   57.5440 O.2    52  LEU52      -0.2867
     85  CB        37.9940   83.1510   56.3560 C.3    52  LEU52       0.0270
     86  CG        38.9920   83.4290   55.2130 C.3    52  LEU52       0.0019
     87  CD1       39.0910   84.9830   54.9050 C.3    52  LEU52       0.0001
     88  CD2       40.3880   82.7070   55.4880 C.3    52  LEU52       0.0001
     89  N         46.2340   85.3140   53.3770 N.3    60  LEU60      -0.1245
     90  CA        46.0330   84.6950   52.0490 C.3    60  LEU60       0.1561
     91  C         46.3020   85.6780   50.9090 C.2    60  LEU60       0.2260
     92  O         46.9560   85.3400   49.9530 O.2    60  LEU60      -0.2867
     93  CB        44.6040   84.1270   51.9050 C.3    60  LEU60       0.0270
     94  CG        44.2350   83.0510   52.9470 C.3    60  LEU60       0.0019
     95  CD1       42.7040   82.8590   53.0800 C.3    60  LEU60       0.0001
     96  CD2       44.9150   81.7550   52.6260 C.3    60  LEU60       0.0001
     97  N         49.5580   84.8280   59.4930 N.3   129  TRP129     -0.1241
     98  CA        49.1580   83.4710   59.7900 C.3   129  TRP129      0.1605
     99  C         49.5090   83.0600   61.2530 C.2   129  TRP129      0.2264
    100  O         48.7830   82.2940   61.9150 O.2   129  TRP129     -0.2867
    101  CB        49.8450   82.5280   58.8000 C.3   129  TRP129      0.0550
    102  CG        49.1740   81.3060   58.7580 C.ar  129  TRP129      0.0003
    103  CD1       49.4630   80.2030   59.4610 C.ar  129  TRP129      0.0946
    104  CD2       48.0310   81.0350   58.0020 C.ar  129  TRP129      0.0152
    105  NE1       48.5670   79.2310   59.1890 N.ar  129  TRP129     -0.2442
    106  CE2       47.6610   79.7180   58.2860 C.ar  129  TRP129      0.0810
    107  CE3       47.2810   81.7730   57.0930 C.ar  129  TRP129      0.0012
    108  CZ2       46.5450   79.1150   57.7040 C.ar  129  TRP129      0.0191
    109  CZ3       46.1750   81.1940   56.5160 C.ar  129  TRP129      0.0001
    110  CH2       45.8150   79.8730   56.8180 C.ar  129  TRP129      0.0015
@<TRIPOS>BOND
     1    58    59    1
     2    58    55    1
     3    59    60    1
     4    60    54    1
     5    92    91    2
     6    55    54    1
     7    55    56    1
     8    67    66    1
     9    54    52   am
    10    91    90    1
    11    56    57    2
    12    93    90    1
    13    93    94    1
    14    52    51    1
    15    52    53    2
    16    90    89    1
    17    51    50    1
    18    66    68    1
    19    66    65    1
    20    96    94    1
    21    94    95    1
    22    65    62    1
    23    46    45    2
    24    50    45   am
    25    45    44    1
    26    62    61    1
    27    62    63    1
    28    87    86    1
    29    63    64    2
    30    63    69   am
    31    42    41    2
    32    86    88    1
    33    86    85    1
    34    37    38    1
    35    37    34    1
    36    44    47    1
    37    44    43    1
    38    69    70    1
    39    79    77    1
    40    41    40    1
    41    41    43   am
    42    49    47    1
    43    39    40    1
    44    39    35   am
    45    47    48    1
    46    70    71    1
    47    80    78    1
    48    34    35    1
    49    34    33    1
    50    85    82    1
    51    77    78    1
    52    77    74    1
    53   109   110   ar
    54   109   107   ar
    55    35    36    2
    56   110   108   ar
    57   107   104   ar
    58    71    72    2
    59    73    74    1
    60    84    83    2
    61    33    24   am
    62    74    75    1
    63    76    75    2
    64   108   106   ar
    65    82    83    1
    66    82    81    1
    67   104   106   ar
    68   104   102   ar
    69    25    24    2
    70   106   105   ar
    71    24    23    1
    72   102   101    1
    73   102   103   ar
    74   101    98    1
    75    12    11    2
    76    17    16    2
    77   105   103   ar
    78    97    98    1
    79    21    19   am
    80    23    22    1
    81    23    26    1
    82    16    15    1
    83    16    22   am
    84    98    99    1
    85    15    18    1
    86    15    14    1
    87    11    14   am
    88    11    10    1
    89    26    27    1
    90    18    19    1
    91    19    20    2
    92    10    13    1
    93    10     9    1
    94    99   100    2
    95     4     3    2
    96    27    28    1
    97     3     9   am
    98     3     2    1
    99    28    29    1
   100    29    30    2
   101     2     5    1
   102     2     1    1
   103     5     6    1
   104    30    31    1
   105    30    32    1
   106     6     7    1
   107     6     8    1
