@<TRIPOS>MOLECULE
tmp/2hj9B00.pdb
 132 128 0 0 0
SMALL
GASTEIGER

@<TRIPOS>ATOM
      1  N         -9.0030  -38.6510   78.7890 N.3    48  PRO48      -0.2116
      2  CA        -8.7490  -39.1650   77.4380 C.3    48  PRO48       0.1372
      3  C         -9.4170  -40.4980   77.0490 C.2    48  PRO48       0.2244
      4  O        -10.2990  -40.5000   76.1890 O.2    48  PRO48      -0.2868
      5  CB        -7.2290  -39.2670   77.3980 C.3    48  PRO48       0.0268
      6  CG        -6.8000  -38.1480   78.2440 C.3    48  PRO48       0.0207
      7  CD        -7.7480  -38.2030   79.4150 C.3    48  PRO48       0.0892
      8  N         -7.1010  -45.6300   75.3760 N.3    51  GLN51      -0.1245
      9  CA        -5.6540  -45.6120   75.3290 C.3    51  GLN51       0.1566
     10  C         -5.0880  -46.9490   75.7360 C.2    51  GLN51       0.2260
     11  O         -5.6570  -47.6400   76.5770 O.2    51  GLN51      -0.2867
     12  CB        -5.1030  -44.5290   76.2530 C.3    51  GLN51       0.0367
     13  CG        -5.2170  -43.1000   75.7140 C.3    51  GLN51       0.0905
     14  CD        -4.2890  -42.1250   76.4350 C.2    51  GLN51       0.2608
     15  OE1       -3.2890  -42.5170   77.0220 O.2    51  GLN51      -0.2717
     16  NE2       -4.6270  -40.8500   76.3920 N.am   51  GLN51      -0.0878
     17  N         -2.1890  -46.8320   77.1670 N.3    53  SER53      -0.1217
     18  CA        -1.8050  -46.3620   78.4970 C.3    53  SER53       0.1889
     19  C         -2.9790  -46.5260   79.4560 C.2    53  SER53       0.2288
     20  O         -4.1120  -46.1690   79.1230 O.2    53  SER53      -0.2866
     21  CB        -1.3890  -44.9020   78.4530 C.3    53  SER53       0.2089
     22  OG        -0.9090  -44.4670   79.7070 O.3    53  SER53      -0.2183
     23  N         -2.9200  -45.2220   82.4970 N.3    55  TYR55      -0.1227
     24  CA        -2.7140  -44.1890   83.4910 C.3    55  TYR55       0.1736
     25  C         -4.0200  -43.6350   84.0380 C.2    55  TYR55       0.2595
     26  O         -4.1990  -43.5460   85.2440 O.2    55  TYR55      -0.2718
     27  CB        -1.8720  -43.0460   82.9400 C.3    55  TYR55       0.0548
     28  CG        -1.7190  -41.9640   83.9760 C.ar   55  TYR55      -0.0200
     29  CD1       -0.7500  -42.0720   84.9610 C.ar   55  TYR55      -0.0009
     30  CD2       -2.5970  -40.8640   84.0170 C.ar   55  TYR55      -0.0009
     31  CE1       -0.6170  -41.1090   85.9250 C.ar   55  TYR55       0.0417
     32  CE2       -2.4740  -39.8900   84.9920 C.ar   55  TYR55       0.0417
     33  CZ        -1.4750  -40.0190   85.9300 C.ar   55  TYR55       0.1957
     34  OH        -1.3180  -39.0880   86.9080 O.3    55  TYR55      -0.2866
     35  N         -4.9100  -43.2560   83.1320 N.am   56  TRP56      -0.1976
     36  CA        -6.1640  -42.5800   83.4460 C.3    56  TRP56       0.1640
     37  C         -7.1240  -43.5110   84.1600 C.2    56  TRP56       0.2290
     38  O         -7.6730  -43.1490   85.2060 O.2    56  TRP56      -0.2864
     39  CB        -6.7890  -42.0440   82.1510 C.3    56  TRP56       0.0576
     40  CG        -5.8210  -41.1920   81.3910 C.ar   56  TRP56       0.0006
     41  CD1       -5.0280  -41.5770   80.3500 C.ar   56  TRP56       0.0946
     42  CD2       -5.5020  -39.8150   81.6470 C.ar   56  TRP56       0.0152
     43  NE1       -4.2570  -40.5220   79.9250 N.ar   56  TRP56      -0.2442
     44  CE2       -4.5300  -39.4290   80.7060 C.ar   56  TRP56       0.0810
     45  CE3       -5.9640  -38.8660   82.5640 C.ar   56  TRP56       0.0012
     46  CZ2       -3.9960  -38.1320   80.6680 C.ar   56  TRP56       0.0191
     47  CZ3       -5.4430  -37.5780   82.5140 C.ar   56  TRP56       0.0001
     48  CH2       -4.4690  -37.2260   81.5770 C.ar   56  TRP56       0.0015
     49  N         -2.2420  -34.5580   85.1490 N.3   123  ASN123     -0.1240
     50  CA        -1.1440  -34.6760   84.1680 C.3   123  ASN123      0.1653
     51  C         -0.4740  -33.3220   83.8170 C.2   123  ASN123      0.2266
     52  O          0.0190  -33.0950   82.6920 O.2   123  ASN123     -0.2867
     53  CB        -1.6390  -35.4110   82.9060 C.3   123  ASN123      0.1155
     54  CG        -0.5570  -36.2380   82.2390 C.2   123  ASN123      0.2627
     55  OD1        0.3650  -36.7580   82.8940 O.2   123  ASN123     -0.2716
     56  ND2       -0.6620  -36.3700   80.9320 N.am  123  ASN123     -0.0877
     57  N          4.5130  -36.3100   71.1910 N.3   170  PHE170     -0.1241
     58  CA         3.0880  -36.4840   71.3200 C.3   170  PHE170      0.1605
     59  C          2.4440  -35.6910   70.1770 C.2   170  PHE170      0.2264
     60  O          3.1010  -35.3450   69.1910 O.2   170  PHE170     -0.2867
     61  CB         2.6840  -35.9000   72.6730 C.3   170  PHE170      0.0534
     62  CG         1.4170  -36.4480   73.2400 C.ar  170  PHE170     -0.0203
     63  CD1        1.2640  -37.8160   73.4490 C.ar  170  PHE170     -0.0042
     64  CD2        0.4010  -35.5820   73.6400 C.ar  170  PHE170     -0.0042
     65  CE1        0.0940  -38.3220   73.9990 C.ar  170  PHE170     -0.0003
     66  CE2       -0.7830  -36.0700   74.2010 C.ar  170  PHE170     -0.0003
     67  CZ        -0.9370  -37.4350   74.3870 C.ar  170  PHE170     -0.0000
     68  N          2.4110  -31.3970   76.4340 N.3   175  ILE175     -0.1245
     69  CA         3.1180  -32.6760   76.6700 C.3   175  ILE175      0.1561
     70  C          4.3700  -32.7660   75.7720 C.2   175  ILE175      0.2260
     71  O          5.4560  -33.1060   76.2360 O.2   175  ILE175     -0.2867
     72  CB         2.1800  -33.9290   76.4570 C.3   175  ILE175      0.0252
     73  CG1        0.9640  -33.9170   77.3870 C.3   175  ILE175      0.0019
     74  CG2        2.9530  -35.2660   76.5770 C.3   175  ILE175      0.0019
     75  CD1        1.3040  -33.6910   78.8230 C.3   175  ILE175      0.0001
     76  N          7.9250  -32.9890   77.6910 N.3   179  ARG179     -0.1245
     77  CA         8.6230  -34.2940   77.5580 C.3   179  ARG179      0.1563
     78  C          9.6910  -34.2610   76.4610 C.2   179  ARG179      0.2260
     79  O         10.8420  -34.6050   76.7060 O.2   179  ARG179     -0.2867
     80  CB         7.6370  -35.4560   77.3370 C.3   179  ARG179      0.0307
     81  CG         6.6650  -35.6690   78.5050 C.3   179  ARG179      0.0489
     82  CD         5.7060  -36.8650   78.2370 C.3   179  ARG179      0.2205
     83  NE         4.9030  -37.2060   79.4200 N.pl3 179  ARG179     -0.0865
     84  CZ         3.9880  -38.1830   79.4780 C.cat 179  ARG179      0.5346
     85  NH1        3.7650  -38.9520   78.4230 N.pl3 179  ARG179      0.1354
     86  NH2        3.2980  -38.3950   80.6030 N.pl3 179  ARG179      0.1354
     87  N          5.2870  -40.6420   74.6400 N.3   229  SER229     -0.1202
     88  CA         4.1740  -41.2600   75.3460 C.3   229  SER229      0.2020
     89  C          4.1250  -42.7720   75.1300 C.2   229  SER229      0.2619
     90  O          4.8490  -43.3020   74.2780 O.2   229  SER229     -0.2717
     91  CB         2.8450  -40.6300   74.9800 C.3   229  SER229      0.2103
     92  OG         2.4820  -40.9950   73.6730 O.3   229  SER229     -0.2182
     93  N          3.2810  -43.4450   75.9200 N.am  230  THR230     -0.1938
     94  CA         3.1540  -44.9050   75.9300 C.3   230  THR230      0.2028
     95  C          2.6980  -45.4620   74.5680 C.2   230  THR230      0.2642
     96  O          3.3550  -46.3270   74.0150 O.2   230  THR230     -0.2714
     97  CB         2.1850  -45.3670   77.0490 C.3   230  THR230      0.1808
     98  OG1        2.7520  -45.0800   78.3330 O.3   230  THR230     -0.2208
     99  CG2        1.8770  -46.8740   76.9350 C.3   230  THR230      0.0379
    100  N          1.5840  -44.9670   74.0360 N.am  231  ASP231     -0.1971
    101  CA         1.0090  -45.5180   72.8000 C.3   231  ASP231      0.1709
    102  C          1.9270  -45.2930   71.5950 C.2   231  ASP231      0.2293
    103  O          2.1060  -46.1740   70.7440 O.2   231  ASP231     -0.2864
    104  CB        -0.3720  -44.9200   72.5340 C.3   231  ASP231      0.1436
    105  CG        -1.4200  -45.3260   73.5930 C.2   231  ASP231      0.3671
    106  OD1       -1.0790  -45.4970   74.8040 O.co2 231  ASP231     -0.2456
    107  OD2       -2.6090  -45.4630   73.1970 O.co2 231  ASP231     -0.2456
    108  N          7.2790  -44.2820   78.2190 N.3   253  TRP253     -0.1241
    109  CA         7.0800  -43.0840   79.0600 C.3   253  TRP253      0.1605
    110  C          5.8640  -43.2700   79.9660 C.2   253  TRP253      0.2264
    111  O          4.7290  -43.0370   79.5480 O.2   253  TRP253     -0.2867
    112  CB         6.9160  -41.8030   78.1990 C.3   253  TRP253      0.0550
    113  CG         7.5980  -40.6100   78.8090 C.ar  253  TRP253      0.0003
    114  CD1        8.6990  -39.9170   78.3070 C.ar  253  TRP253      0.0946
    115  CD2        7.2640  -39.9680   80.0530 C.ar  253  TRP253      0.0152
    116  NE1        9.0380  -38.8830   79.1610 N.ar  253  TRP253     -0.2442
    117  CE2        8.1830  -38.9000   80.2390 C.ar  253  TRP253      0.0810
    118  CE3        6.2620  -40.1720   81.0180 C.ar  253  TRP253      0.0012
    119  CZ2        8.1380  -38.0600   81.3660 C.ar  253  TRP253      0.0191
    120  CZ3        6.2280  -39.3260   82.1430 C.ar  253  TRP253      0.0001
    121  CH2        7.1640  -38.2950   82.3040 C.ar  253  TRP253      0.0015
    122  N          6.3120  -44.4040   86.6770 N.3   274  ARG274     -0.1245
    123  CA         5.7630  -43.5790   87.7160 C.3   274  ARG274      0.1563
    124  C          5.0520  -44.3960   88.7950 C.2   274  ARG274      0.2260
    125  O          4.4100  -45.4190   88.5010 O.2   274  ARG274     -0.2867
    126  CB         4.9880  -42.3740   87.1390 C.3   274  ARG274      0.0307
    127  CG         3.7260  -42.6470   86.4110 C.3   274  ARG274      0.0489
    128  CD         3.4790  -41.6760   85.2170 C.3   274  ARG274      0.2205
    129  NE         2.6610  -42.4790   84.2990 N.pl3 274  ARG274     -0.0865
    130  CZ         2.2610  -42.1850   83.0700 C.cat 274  ARG274      0.5346
    131  NH1        2.5480  -41.0240   82.4820 N.pl3 274  ARG274      0.1354
    132  NH2        1.5540  -43.0920   82.4260 N.pl3 274  ARG274      0.1354
@<TRIPOS>BOND
     1    60    59    2
     2    59    58    1
     3   103   102    2
     4    57    58    1
     5    58    61    1
     6   102   101    1
     7   104   101    1
     8   104   105    1
     9    61    62    1
    10   101   100    1
    11   107   105   ar
    12    62    63   ar
    13    62    64   ar
    14    63    65   ar
    15   105   106   ar
    16    64    66   ar
    17    92    91    1
    18    65    67   ar
    19    96    95    2
    20   100    95   am
    21    66    67   ar
    22    90    89    2
    23    95    94    1
    24    87    88    1
    25    91    88    1
    26    89    88    1
    27    89    93   am
    28     9     8    1
    29     9    10    1
    30     9    12    1
    31    13    12    1
    32    13    14    1
    33    10    11    2
    34    70    71    2
    35    70    69    1
    36    93    94    1
    37    94    97    1
    38     4     3    2
    39    16    14   am
    40    68    69    1
    41    14    15    2
    42    72    74    1
    43    72    69    1
    44    72    73    1
    45    78    79    2
    46    78    77    1
    47    99    97    1
    48     3     2    1
    49    97    98    1
    50    17    18    1
    51    80    77    1
    52    80    81    1
    53    73    75    1
    54     5     2    1
    55     5     6    1
    56     2     1    1
    57    77    76    1
    58   112   113    1
    59   112   109    1
    60   108   109    1
    61    82    81    1
    62    82    83    1
    63     6     7    1
    64   114   113   ar
    65   114   116   ar
    66    85    84    1
    67    21    18    1
    68    21    22    1
    69    18    19    1
    70     1     7    1
    71   113   115   ar
    72   109   110    1
    73    20    19    2
    74   116   117   ar
    75    83    84    2
    76    84    86    1
    77   111   110    2
    78    43    41   ar
    79    43    44   ar
    80   115   117   ar
    81   115   118   ar
    82   117   119   ar
    83    41    40   ar
    84    46    44   ar
    85    46    48   ar
    86    44    42   ar
    87    56    54   am
    88   118   120   ar
    89   119   121   ar
    90    40    42   ar
    91    40    39    1
    92    48    47   ar
    93    42    45   ar
    94   120   121   ar
    95    39    36    1
    96    54    55    2
    97    54    53    1
    98   132   130    1
    99   131   130    1
   100    23    24    1
   101    47    45   ar
   102    52    51    2
   103    53    50    1
   104    27    24    1
   105    27    28    1
   106   130   129    2
   107    35    36    1
   108    35    25   am
   109    36    37    1
   110    24    25    1
   111    51    50    1
   112    28    30   ar
   113    28    29   ar
   114    30    32   ar
   115    25    26    2
   116    37    38    2
   117    50    49    1
   118   129   128    1
   119    29    31   ar
   120    32    33   ar
   121   128   127    1
   122    31    33   ar
   123    33    34    1
   124   127   126    1
   125   122   123    1
   126   126   123    1
   127   123   124    1
   128   125   124    2
