@<TRIPOS>MOLECULE
tmp/2hjgA00.pdb
 114 109 0 0 0
SMALL
GASTEIGER

@<TRIPOS>ATOM
      1  N         42.8860   37.8950   73.1470 N.3   155  PRO155     -0.2102
      2  CA        44.1540   37.9700   73.8710 C.3   155  PRO155      0.1504
      3  C         45.1400   38.9360   73.2230 C.2   155  PRO155      0.2576
      4  O         45.2480   38.9940   72.0000 O.2   155  PRO155     -0.2718
      5  CB        44.6890   36.5460   73.8040 C.3   155  PRO155      0.0282
      6  CG        43.4980   35.6990   73.5700 C.3   155  PRO155      0.0208
      7  CD        42.5340   36.5140   72.7820 C.3   155  PRO155      0.0893
      8  N         45.8210   39.7090   74.0580 N.am  156  ASN156     -0.1961
      9  CA        46.8260   40.6740   73.6160 C.3   156  ASN156      0.1819
     10  C         46.3140   41.8480   72.7620 C.2   156  ASN156      0.2621
     11  O         47.0960   42.4530   72.0340 O.2   156  ASN156     -0.2715
     12  CB        47.9880   39.9500   72.9190 C.3   156  ASN156      0.1195
     13  CG        48.6210   38.8850   73.8070 C.2   156  ASN156      0.2630
     14  OD1       49.0330   39.1660   74.9420 O.2   156  ASN156     -0.2716
     15  ND2       48.6860   37.6530   73.3040 N.am  156  ASN156     -0.0877
     16  N         45.0110   42.1570   72.8520 N.am  157  VAL157     -0.1963
     17  CA        44.4630   43.4440   72.3650 C.3   157  VAL157      0.1727
     18  C         44.9640   44.6420   73.1660 C.2   157  VAL157      0.2617
     19  O         44.9870   45.7590   72.6580 O.2   157  VAL157     -0.2715
     20  CB        42.9170   43.5420   72.4630 C.3   157  VAL157      0.0290
     21  CG1       42.2670   42.6980   71.4370 C.3   157  VAL157      0.0023
     22  CG2       42.4260   43.1910   73.8580 C.3   157  VAL157      0.0023
     23  N         45.2950   44.4070   74.4370 N.am  158  GLY158     -0.1940
     24  CA        45.8170   45.4470   75.3180 C.3   158  GLY158      0.2014
     25  C         44.9400   45.7820   76.5020 C.2   158  GLY158      0.2639
     26  O         45.0660   46.8690   77.0570 O.2   158  GLY158     -0.2714
     27  N         44.0660   44.8530   76.8940 N.am  159  LYS159     -0.1963
     28  CA        43.1390   45.0410   78.0200 C.3   159  LYS159      0.1728
     29  C         43.8400   45.4850   79.3170 C.2   159  LYS159      0.2617
     30  O         43.4690   46.4940   79.9300 O.2   159  LYS159     -0.2715
     31  CB        42.3410   43.7500   78.2780 C.3   159  LYS159      0.0311
     32  CG        41.4010   43.3480   77.1380 C.3   159  LYS159      0.0038
     33  CD        40.5580   42.1140   77.4740 C.3   159  LYS159      0.0206
     34  CE        41.3750   40.8240   77.4880 C.3   159  LYS159      0.1093
     35  NZ        42.2180   40.6090   76.2540 N.3   159  LYS159     -0.1314
     36  N         44.8480   44.7330   79.7320 N.am  160  SER160     -0.1936
     37  CA        45.6200   45.1130   80.9160 C.3   160  SER160      0.2055
     38  C         46.2970   46.4660   80.7310 C.2   160  SER160      0.2643
     39  O         46.3980   47.2520   81.6760 O.2   160  SER160     -0.2714
     40  CB        46.6830   44.0610   81.2440 C.3   160  SER160      0.2130
     41  OG        46.0970   42.9790   81.9270 O.3   160  SER160     -0.2179
     42  N         46.7810   46.7140   79.5180 N.am  161  SER161     -0.1949
     43  CA        47.4960   47.9490   79.2270 C.3   161  SER161      0.1924
     44  C         46.5480   49.1390   79.3320 C.2   161  SER161      0.2314
     45  O         46.8920   50.1670   79.9170 O.2   161  SER161     -0.2863
     46  CB        48.1390   47.8990   77.8340 C.3   161  SER161      0.2116
     47  OG        48.8210   46.6760   77.6350 O.3   161  SER161     -0.2180
     48  N         47.0970   35.1500   82.8060 N.3   196  LYS196     -0.1245
     49  CA        48.3580   34.9780   82.0790 C.3   196  LYS196      0.1561
     50  C         49.5150   35.4030   82.9880 C.2   196  LYS196      0.2260
     51  O         49.3340   36.2090   83.8960 O.2   196  LYS196     -0.2867
     52  CB        48.3480   35.7800   80.7690 C.3   196  LYS196      0.0271
     53  CG        48.2110   37.3020   80.9160 C.3   196  LYS196      0.0035
     54  CD        47.8580   37.9520   79.5660 C.3   196  LYS196      0.0206
     55  CE        48.7060   39.1820   79.2740 C.3   196  LYS196      0.1093
     56  NZ        48.7180   39.4990   77.8270 N.3   196  LYS196     -0.1314
     57  N         45.4970   47.0160   64.6060 N.3   228  GLU228     -0.1245
     58  CA        46.4830   46.3810   63.7210 C.3   228  GLU228      0.1567
     59  C         45.9060   45.1690   62.9910 C.2   228  GLU228      0.2260
     60  O         45.9510   45.1030   61.7680 O.2   228  GLU228     -0.2867
     61  CB        47.7290   45.9430   64.5100 C.3   228  GLU228      0.0388
     62  CG        48.9490   46.8120   64.3270 C.3   228  GLU228      0.1160
     63  CD        50.1870   46.2180   64.9880 C.2   228  GLU228      0.3649
     64  OE1       50.0610   45.6830   66.1140 O.co2 228  GLU228     -0.2457
     65  OE2       51.2850   46.2880   64.3830 O.co2 228  GLU228     -0.2457
     66  N         42.0490   49.7340   70.1550 N.3   254  ASN254     -0.1225
     67  CA        43.3740   49.9460   70.7310 C.3   254  ASN254      0.1785
     68  C         44.4480   49.7660   69.6690 C.2   254  ASN254      0.2597
     69  O         44.1450   49.3990   68.5320 O.2   254  ASN254     -0.2718
     70  CB        43.6060   48.9710   71.9020 C.3   254  ASN254      0.1169
     71  CG        44.7020   49.4410   72.8610 C.2   254  ASN254      0.2627
     72  OD1       45.4690   48.6310   73.3910 O.2   254  ASN254     -0.2716
     73  ND2       44.7820   50.7510   73.0770 N.am  254  ASN254     -0.0877
     74  N         45.7000   50.0360   70.0420 N.am  255  LYS255     -0.1980
     75  CA        46.8530   49.9170   69.1410 C.3   255  LYS255      0.1596
     76  C         46.7420   50.8140   67.9080 C.2   255  LYS255      0.2287
     77  O         47.3070   50.5030   66.8600 O.2   255  LYS255     -0.2864
     78  CB        47.0710   48.4640   68.6970 C.3   255  LYS255      0.0298
     79  CG        47.1110   47.4440   69.8280 C.3   255  LYS255      0.0038
     80  CD        47.9350   46.2300   69.4060 C.3   255  LYS255      0.0206
     81  CE        47.7340   45.0400   70.3220 C.3   255  LYS255      0.1093
     82  NZ        48.4660   45.1820   71.5890 N.3   255  LYS255     -0.1314
     83  N         48.1360   53.6300   67.4560 N.3   257  ASP257     -0.1225
     84  CA        49.4970   54.1140   67.1760 C.3   257  ASP257      0.1805
     85  C         50.2150   53.2690   66.1110 C.2   257  ASP257      0.2597
     86  O         51.0220   53.7900   65.3480 O.2   257  ASP257     -0.2718
     87  CB        50.3370   54.0900   68.4500 C.3   257  ASP257      0.1424
     88  CG        50.4380   52.7060   69.0350 C.2   257  ASP257      0.3668
     89  OD1       49.3870   52.1320   69.3500 O.co2 257  ASP257     -0.2456
     90  OD2       51.5530   52.1840   69.1580 O.co2 257  ASP257     -0.2456
     91  N         49.9080   51.9710   66.0840 N.am  258  ALA258     -0.1979
     92  CA        50.5690   50.9960   65.2120 C.3   258  ALA258      0.1597
     93  C         49.9440   50.8720   63.8150 C.2   258  ALA258      0.2287
     94  O         50.4140   50.0900   62.9980 O.2   258  ALA258     -0.2864
     95  CB        50.5860   49.6340   65.8970 C.3   258  ALA258      0.0319
     96  N         45.3080   54.5810   72.0360 N.3   287  SER287     -0.1202
     97  CA        46.5170   53.7940   72.2140 C.3   287  SER287      0.2020
     98  C         46.8670   53.7070   73.6950 C.2   287  SER287      0.2619
     99  O         47.1530   54.7210   74.3330 O.2   287  SER287     -0.2717
    100  CB        47.6850   54.4280   71.4420 C.3   287  SER287      0.2103
    101  OG        48.9100   53.7810   71.7280 O.3   287  SER287     -0.2182
    102  N         46.8570   52.4930   74.2340 N.am  288  ALA288     -0.1965
    103  CA        47.2880   52.2710   75.6080 C.3   288  ALA288      0.1728
    104  C         48.7790   52.5820   75.7380 C.2   288  ALA288      0.2616
    105  O         49.2480   52.9580   76.8080 O.2   288  ALA288     -0.2715
    106  CB        47.0050   50.8550   76.0360 C.3   288  ALA288      0.0334
    107  N         49.5100   52.4380   74.6400 N.am  289  LEU289     -0.1977
    108  CA        50.9570   52.5920   74.6560 C.3   289  LEU289      0.1596
    109  C         51.3640   54.0640   74.6670 C.2   289  LEU289      0.2287
    110  O         52.0040   54.5260   75.6070 O.2   289  LEU289     -0.2864
    111  CB        51.5810   51.8680   73.4630 C.3   289  LEU289      0.0297
    112  CG        53.0950   51.6400   73.5360 C.3   289  LEU289      0.0022
    113  CD1       53.4320   50.5960   74.5980 C.3   289  LEU289      0.0001
    114  CD2       53.6340   51.2050   72.1900 C.3   289  LEU289      0.0001
@<TRIPOS>BOND
     1    60    59    2
     2    59    58    1
     3    94    93    2
     4    58    61    1
     5    58    57    1
     6    93    92    1
     7    62    61    1
     8    62    63    1
     9    65    63   ar
    10    63    64   ar
    11    92    95    1
    12    92    91    1
    13    86    85    2
    14    91    85   am
    15    85    84    1
    16    77    76    2
    17    84    83    1
    18    84    87    1
    19    76    75    1
    20    87    88    1
    21    69    68    2
    22    78    75    1
    23    78    79    1
    24    88    90   ar
    25    88    89   ar
    26    75    74    1
    27    80    79    1
    28    80    81    1
    29    68    74   am
    30    68    67    1
    31    66    67    1
    32    81    82    1
    33    67    70    1
    34    21    20    1
    35   100   101    1
    36   100    97    1
    37    70    71    1
    38     4     3    2
    39    11    10    2
    40    96    97    1
    41   114   112    1
    42    97    98    1
    43    17    20    1
    44    17    16    1
    45    17    18    1
    46    20    22    1
    47    19    18    2
    48    10    16   am
    49    10     9    1
    50     7     1    1
    51     7     6    1
    52    71    73   am
    53    71    72    2
    54    12     9    1
    55    12    13    1
    56     1     2    1
    57    18    23   am
    58     3     2    1
    59     3     8   am
    60    15    13   am
    61   111   112    1
    62   111   108    1
    63   112   113    1
    64     6     5    1
    65     9     8    1
    66    98   102   am
    67    98    99    2
    68     5     2    1
    69    13    14    2
    70   102   103    1
    71    23    24    1
    72   107   108    1
    73   107   104   am
    74   108   109    1
    75   109   110    2
    76    24    25    1
    77   103   104    1
    78   103   106    1
    79   104   105    2
    80    35    34    1
    81    25    27   am
    82    25    26    2
    83    27    28    1
    84    32    33    1
    85    32    31    1
    86    33    34    1
    87    47    46    1
    88    56    55    1
    89    46    43    1
    90    28    31    1
    91    28    29    1
    92    43    44    1
    93    43    42    1
    94    55    54    1
    95    29    36   am
    96    29    30    2
    97    44    45    2
    98    42    38   am
    99    54    53    1
   100    36    37    1
   101    38    37    1
   102    38    39    2
   103    52    53    1
   104    52    49    1
   105    37    40    1
   106    40    41    1
   107    49    48    1
   108    49    50    1
   109    50    51    2
