@<TRIPOS>MOLECULE
tmp/2hjhA01.pdb
 103 103 0 0 0
SMALL
GASTEIGER

@<TRIPOS>ATOM
      1  N         -4.3900   34.1530   93.0690 N.3    49  ALA49      -0.1245
      2  CA        -3.4710   34.4760   94.1550 C.3    49  ALA49       0.1562
      3  C         -4.0450   34.1690   95.5520 C.2    49  ALA49       0.2260
      4  O         -3.2990   34.0580   96.5230 O.2    49  ALA49      -0.2867
      5  CB        -3.0000   35.8710   94.0320 C.3    49  ALA49       0.0290
      6  N          1.6610   35.3250  101.4950 N.3    57  ILE57      -0.1231
      7  CA         1.8870   35.9990  100.2540 C.3    57  ILE57       0.1678
      8  C          0.6280   36.8420   99.8950 C.2    57  ILE57       0.2434
      9  O         -0.5060   36.3120   99.6710 O.2    57  ILE57      -0.2733
     10  CB         2.1930   35.0080   99.1000 C.3    57  ILE57       0.0265
     11  CG1        3.3770   34.0560   99.4200 C.3    57  ILE57       0.0019
     12  CG2        2.4720   35.7620   97.8400 C.3    57  ILE57       0.0020
     13  CD1        3.6920   33.1850   98.1710 C.3    57  ILE57       0.0001
     14  N          0.8330   38.1540   99.7490 N.am   58  PRO58      -0.2718
     15  CA        -0.2900   39.0410   99.4390 C.3    58  PRO58       0.1535
     16  C         -0.9250   38.6650   98.1640 C.2    58  PRO58       0.2599
     17  O         -0.2130   38.2170   97.2420 O.2    58  PRO58      -0.2715
     18  CB         0.3640   40.4630   99.3380 C.3    58  PRO58       0.0310
     19  CG         1.8180   40.3120  100.0190 C.3    58  PRO58       0.0237
     20  CD         2.1380   38.8850   99.8060 C.3    58  PRO58       0.0939
     21  N         -2.2340   38.7320   98.0890 N.am   59  ASP59      -0.1958
     22  CA        -2.8020   38.6480   96.7580 C.3    59  ASP59       0.1840
     23  C         -2.5770   40.0400   96.0880 C.2    59  ASP59       0.2622
     24  O         -1.8030   40.8450   96.6260 O.2    59  ASP59      -0.2715
     25  CB        -4.2630   38.1850   96.7610 C.3    59  ASP59       0.1450
     26  CG        -5.2190   39.1180   97.4920 C.2    59  ASP59       0.3671
     27  OD1       -4.8920   40.3470   97.6610 O.co2  59  ASP59      -0.2456
     28  OD2       -6.4050   38.7090   97.8150 O.co2  59  ASP59      -0.2456
     29  N         -3.2310   40.2940   94.9540 N.am   60  PHE60      -0.1974
     30  CA        -3.1850   41.6010   94.3170 C.3    60  PHE60       0.1639
     31  C         -4.1600   42.6670   94.8400 C.2    60  PHE60       0.2290
     32  O         -3.7120   43.8120   95.1500 O.2    60  PHE60      -0.2864
     33  CB        -3.3780   41.4240   92.8340 C.3    60  PHE60       0.0560
     34  CG        -2.2580   40.7390   92.2190 C.ar   60  PHE60      -0.0200
     35  CD1       -2.1180   39.3700   92.3440 C.ar   60  PHE60      -0.0042
     36  CD2       -1.2710   41.4660   91.5100 C.ar   60  PHE60      -0.0042
     37  CE1       -1.0230   38.6980   91.7080 C.ar   60  PHE60      -0.0003
     38  CE2       -0.1720   40.8110   90.9540 C.ar   60  PHE60      -0.0003
     39  CZ        -0.0440   39.4240   91.0800 C.ar   60  PHE60      -0.0000
     40  N         -0.8620   43.3520   97.0490 N.3    66  PHE66      -0.1241
     41  CA         0.2590   43.9990   96.3820 C.3    66  PHE66       0.1605
     42  C         -0.0800   45.4260   95.9420 C.2    66  PHE66       0.2264
     43  O          0.7370   46.2940   96.1550 O.2    66  PHE66      -0.2867
     44  CB         0.7130   43.1740   95.1790 C.3    66  PHE66       0.0534
     45  CG         1.7450   43.8250   94.3640 C.ar   66  PHE66      -0.0203
     46  CD1        3.0500   43.8530   94.7740 C.ar   66  PHE66      -0.0042
     47  CD2        1.4000   44.4560   93.1990 C.ar   66  PHE66      -0.0042
     48  CE1        4.0150   44.4810   94.0310 C.ar   66  PHE66      -0.0003
     49  CE2        2.3530   45.0930   92.4310 C.ar   66  PHE66      -0.0003
     50  CZ         3.6530   45.1020   92.8450 C.ar   66  PHE66      -0.0000
     51  N          7.8610   40.8190   94.1160 N.3    99  VAL99      -0.1231
     52  CA         7.1350   39.6770   93.5750 C.3    99  VAL99       0.1692
     53  C          7.9930   38.4590   93.3190 C.2    99  VAL99       0.2592
     54  O          7.5090   37.5060   92.7250 O.2    99  VAL99      -0.2718
     55  CB         6.3010   39.9670   92.2800 C.3    99  VAL99       0.0266
     56  CG1        5.2000   40.9180   92.6190 C.3    99  VAL99       0.0020
     57  CG2        7.1590   40.3910   91.1590 C.3    99  VAL99       0.0020
     58  N          9.2510   38.4660   93.7500 N.am  100  LEU100     -0.1966
     59  CA        10.0320   37.2360   93.7350 C.3   100  LEU100      0.1713
     60  C          9.3770   36.1880   94.6650 C.2   100  LEU100      0.2458
     61  O          9.0980   36.4540   95.7760 O.2   100  LEU100     -0.2730
     62  CB        11.4920   37.4760   94.1770 C.3   100  LEU100      0.0310
     63  CG        12.3350   38.2850   93.1910 C.3   100  LEU100      0.0022
     64  CD1       13.7190   38.4490   93.7630 C.3   100  LEU100      0.0001
     65  CD2       12.4510   37.6260   91.8630 C.3   100  LEU100      0.0001
     66  N          9.2800   34.9610   94.2590 N.am  101  PRO101     -0.2716
     67  CA         8.6070   33.9200   95.0780 C.3   101  PRO101      0.1521
     68  C          9.4110   33.4310   96.3090 C.2   101  PRO101      0.2440
     69  O         10.6150   33.4620   96.1860 O.2   101  PRO101     -0.2731
     70  CB         8.5300   32.7910   94.0720 C.3   101  PRO101      0.0310
     71  CG         9.7970   32.8500   93.3900 C.3   101  PRO101      0.0237
     72  CD         9.9220   34.3880   93.0920 C.3   101  PRO101      0.0939
     73  N          8.8140   32.9960   97.4330 N.am  102  PRO102     -0.2727
     74  CA         9.5720   32.2110   98.4270 C.3   102  PRO102      0.1402
     75  C          9.7730   30.8560   97.8410 C.2   102  PRO102      0.2269
     76  O          9.2240   30.5780   96.8290 O.2   102  PRO102     -0.2865
     77  CB         8.6320   32.0830   99.6170 C.3   102  PRO102      0.0296
     78  CG         7.2020   32.4340   99.0470 C.3   102  PRO102      0.0237
     79  CD         7.3940   33.1720   97.8210 C.3   102  PRO102      0.0939
     80  N         -0.8270   32.2170   89.0610 N.3   127  ASN127     -0.1225
     81  CA         0.2270   32.5610   90.0320 C.3   127  ASN127      0.1785
     82  C          1.6080   32.3450   89.4160 C.2   127  ASN127      0.2597
     83  O          1.8300   31.3840   88.6540 O.2   127  ASN127     -0.2718
     84  CB         0.0540   31.6920   91.2020 C.3   127  ASN127      0.1169
     85  CG        -1.2260   31.9820   91.9780 C.2   127  ASN127      0.2627
     86  OD1       -1.9020   32.9890   91.7330 O.2   127  ASN127     -0.2716
     87  ND2       -1.4710   31.1780   93.0470 N.am  127  ASN127     -0.0877
     88  N          2.5170   33.2470   89.7710 N.am  128  ILE128     -0.1966
     89  CA         3.8930   33.1590   89.3720 C.3   128  ILE128      0.1727
     90  C          4.7350   32.6450   90.5160 C.2   128  ILE128      0.2616
     91  O          5.9400   32.6270   90.3990 O.2   128  ILE128     -0.2715
     92  CB         4.4080   34.4910   88.9070 C.3   128  ILE128      0.0290
     93  CG1        4.3700   35.5740   89.9800 C.3   128  ILE128      0.0022
     94  CG2        3.6900   34.9070   87.5960 C.3   128  ILE128      0.0023
     95  CD1        5.1670   36.8350   89.5330 C.3   128  ILE128      0.0001
     96  N          4.1200   32.2480   91.6410 N.am  129  ASP129     -0.1971
     97  CA         4.9110   31.9010   92.7890 C.3   129  ASP129      0.1709
     98  C          5.5760   30.5470   92.6850 C.2   129  ASP129      0.2293
     99  O          6.4070   30.1660   93.5370 O.2   129  ASP129     -0.2864
    100  CB         4.1210   32.0660   94.0850 C.3   129  ASP129      0.1436
    101  CG         2.8600   31.2270   94.1430 C.2   129  ASP129      0.3671
    102  OD1        2.8300   30.0920   93.5590 O.co2 129  ASP129     -0.2456
    103  OD2        1.8250   31.6460   94.7330 O.co2 129  ASP129     -0.2456
@<TRIPOS>BOND
     1    94    92    1
     2    83    82    2
     3    92    89    1
     4    92    93    1
     5    80    81    1
     6    89    88    1
     7    89    90    1
     8    82    88   am
     9    82    81    1
    10    95    93    1
    11    81    84    1
    12    91    90    2
    13    90    96   am
    14    38    39   ar
    15    38    36   ar
    16    39    37   ar
    17    57    55    1
    18    84    85    1
    19    36    34   ar
    20    96    97    1
    21    37    35   ar
    22    86    85    2
    23    65    63    1
    24    85    87   am
    25    34    35   ar
    26    34    33    1
    27    55    56    1
    28    55    52    1
    29    49    50   ar
    30    49    47   ar
    31    98    97    1
    32    98    99    2
    33    54    53    2
    34    97   100    1
    35    33    30    1
    36    50    48   ar
    37     1     2    1
    38    72    71    1
    39    72    66    1
    40    63    64    1
    41    63    62    1
    42    47    45   ar
    43    53    52    1
    44    53    58   am
    45    71    70    1
    46   102   101   ar
    47    52    51    1
    48    59    58    1
    49    59    62    1
    50    59    60    1
    51    48    46   ar
    52     5     2    1
    53    70    67    1
    54   100   101    1
    55   101   103   ar
    56     2     3    1
    57    66    60   am
    58    66    67    1
    59    30    31    1
    60    30    29    1
    61    45    46   ar
    62    45    44    1
    63    60    61    2
    64    31    32    2
    65    29    23   am
    66    67    68    1
    67    44    41    1
    68     3     4    2
    69    42    43    2
    70    42    41    1
    71    23    24    2
    72    23    22    1
    73    69    68    2
    74    68    73   am
    75    41    40    1
    76    22    25    1
    77    22    21    1
    78    25    26    1
    79    76    75    2
    80    17    16    2
    81    73    79    1
    82    73    74    1
    83    26    27   ar
    84    26    28   ar
    85    79    78    1
    86    12    10    1
    87    75    74    1
    88    21    16   am
    89    16    15    1
    90    13    11    1
    91    74    77    1
    92    78    77    1
    93    10    11    1
    94    10     7    1
    95    18    15    1
    96    18    19    1
    97    15    14    1
    98     9     8    2
    99    14    20    1
   100    14     8   am
   101    20    19    1
   102     8     7    1
   103     7     6    1
