@<TRIPOS>MOLECULE
tmp/2hjpA01.pdb
 126 118 0 0 0
SMALL
GASTEIGER

@<TRIPOS>ATOM
      1  N         54.2990   31.9300   34.5830 N.3    40  TRP40      -0.1241
      2  CA        53.7370   30.7210   35.1880 C.3    40  TRP40       0.1605
      3  C         53.0150   31.2220   36.4650 C.2    40  TRP40       0.2264
      4  O         53.6700   31.6990   37.4290 O.2    40  TRP40      -0.2867
      5  CB        54.8790   29.7360   35.5270 C.3    40  TRP40       0.0550
      6  CG        54.5510   28.6120   36.4550 C.ar   40  TRP40       0.0003
      7  CD1       55.2610   28.2370   37.5580 C.ar   40  TRP40       0.0946
      8  CD2       53.4770   27.6560   36.3370 C.ar   40  TRP40       0.0152
      9  NE1       54.7040   27.1110   38.1370 N.ar   40  TRP40      -0.2442
     10  CE2       53.6100   26.7420   37.4140 C.ar   40  TRP40       0.0810
     11  CE3       52.4220   27.4860   35.4240 C.ar   40  TRP40       0.0012
     12  CZ2       52.7260   25.6650   37.6020 C.ar   40  TRP40       0.0191
     13  CZ3       51.5390   26.4260   35.5950 C.ar   40  TRP40       0.0001
     14  CH2       51.6900   25.5210   36.6850 C.ar   40  TRP40       0.0015
     15  N         51.9760   30.1980   39.1880 N.3    42  SER42      -0.1202
     16  CA        52.2540   29.1680   40.1630 C.3    42  SER42       0.2020
     17  C         51.3850   29.1190   41.4470 C.2    42  SER42       0.2619
     18  O         51.3200   30.0910   42.1620 O.2    42  SER42      -0.2717
     19  CB        53.7270   29.3480   40.6070 C.3    42  SER42       0.2103
     20  OG        54.0100   28.3930   41.6300 O.3    42  SER42      -0.2182
     21  N         50.7450   27.9890   41.7340 N.am   43  GLY43      -0.1942
     22  CA        49.9930   27.8770   42.9950 C.3    43  GLY43       0.2014
     23  C         50.9670   27.7750   44.1910 C.2    43  GLY43       0.2638
     24  O         50.6830   28.2220   45.2830 O.2    43  GLY43      -0.2714
     25  N         52.1550   27.2070   43.9720 N.am   44  PHE44      -0.1973
     26  CA        53.1240   27.0600   45.0340 C.3    44  PHE44       0.1639
     27  C         53.6070   28.4730   45.4320 C.2    44  PHE44       0.2290
     28  O         53.6700   28.8430   46.6430 O.2    44  PHE44      -0.2864
     29  CB        54.3350   26.2230   44.5240 C.3    44  PHE44       0.0560
     30  CG        55.4430   26.1100   45.5570 C.ar   44  PHE44      -0.0200
     31  CD1       55.3420   25.1860   46.5860 C.ar   44  PHE44      -0.0042
     32  CD2       56.5180   26.9900   45.5370 C.ar   44  PHE44      -0.0042
     33  CE1       56.3320   25.1480   47.6120 C.ar   44  PHE44      -0.0003
     34  CE2       57.4820   26.9590   46.5220 C.ar   44  PHE44      -0.0003
     35  CZ        57.3760   26.0130   47.5790 C.ar   44  PHE44      -0.0000
     36  N         51.0510   24.5810   50.0090 N.3    54  ASP54      -0.1239
     37  CA        50.5390   24.3710   48.6490 C.3    54  ASP54       0.1674
     38  C         49.7570   23.0130   48.7170 C.2    54  ASP54       0.2266
     39  O         50.2260   22.0200   48.1890 O.2    54  ASP54      -0.2867
     40  CB        51.7370   24.2900   47.6770 C.3    54  ASP54       0.1410
     41  CG        51.3130   24.1100   46.2100 C.2    54  ASP54       0.3668
     42  OD1       52.1310   23.5730   45.4040 O.co2  54  ASP54      -0.2456
     43  OD2       50.1700   24.5030   45.8790 O.co2  54  ASP54      -0.2456
     44  N         48.1260   27.8550   36.8660 N.3    81  ASP81      -0.1239
     45  CA        48.0860   26.5930   37.5870 C.3    81  ASP81       0.1674
     46  C         46.6750   26.4260   38.2440 C.2    81  ASP81       0.2266
     47  O         46.3110   27.2080   39.1150 O.2    81  ASP81      -0.2867
     48  CB        49.1560   26.6400   38.6890 C.3    81  ASP81       0.1410
     49  CG        49.2520   25.3630   39.5020 C.2    81  ASP81       0.3668
     50  OD1       48.4710   24.4010   39.2960 O.co2  81  ASP81      -0.2456
     51  OD2       50.1480   25.3420   40.3850 O.co2  81  ASP81      -0.2456
     52  N         46.4130   18.8220   37.1030 N.3   110  GLU110     -0.1245
     53  CA        47.0790   17.5190   37.3910 C.3   110  GLU110      0.1567
     54  C         46.1120   16.4200   37.7750 C.2   110  GLU110      0.2260
     55  O         44.9730   16.6790   38.2280 O.2   110  GLU110     -0.2867
     56  CB        48.0990   17.7180   38.5330 C.3   110  GLU110      0.0388
     57  CG        47.3890   18.1710   39.8330 C.3   110  GLU110      0.1160
     58  CD        48.2460   19.1580   40.6530 C.2   110  GLU110      0.3649
     59  OE1       48.1710   19.1030   41.8830 O.co2 110  GLU110     -0.2457
     60  OE2       48.9960   19.9680   40.0550 O.co2 110  GLU110     -0.2457
     61  N         48.7620   17.6020   33.4880 N.3   148  ARG148     -0.1245
     62  CA        49.9320   17.2360   34.2390 C.3   148  ARG148      0.1563
     63  C         49.8070   15.8410   34.7990 C.2   148  ARG148      0.2260
     64  O         48.8360   15.5030   35.4980 O.2   148  ARG148     -0.2867
     65  CB        50.1660   18.2890   35.3210 C.3   148  ARG148      0.0307
     66  CG        51.1120   17.8640   36.4290 C.3   148  ARG148      0.0489
     67  CD        51.4160   19.0610   37.3860 C.3   148  ARG148      0.2205
     68  NE        51.9200   18.5870   38.6750 N.pl3 148  ARG148     -0.0865
     69  CZ        52.4840   19.3380   39.6260 C.cat 148  ARG148      0.5346
     70  NH1       52.6500   20.6330   39.4340 N.pl3 148  ARG148      0.1354
     71  NH2       52.8330   18.7950   40.8010 N.pl3 148  ARG148      0.1354
     72  N         52.4060   17.8180   30.7470 N.3   177  LEU177     -0.1245
     73  CA        53.4530   18.2340   31.6500 C.3   177  LEU177      0.1561
     74  C         53.7450   16.9660   32.4470 C.2   177  LEU177      0.2260
     75  O         52.8770   16.4820   33.1490 O.2   177  LEU177     -0.2867
     76  CB        52.9440   19.3560   32.5720 C.3   177  LEU177      0.0270
     77  CG        54.0610   20.0390   33.4220 C.3   177  LEU177      0.0019
     78  CD1       53.5220   21.4080   34.0350 C.3   177  LEU177      0.0001
     79  CD2       54.5970   18.9780   34.4930 C.3   177  LEU177      0.0001
     80  N         55.8490   15.3820   35.3440 N.3   179  HIS179     -0.1241
     81  CA        56.6100   15.8910   36.4680 C.3   179  HIS179      0.1621
     82  C         57.4870   14.8540   37.1960 C.2   179  HIS179      0.2264
     83  O         57.2500   13.6330   37.1680 O.2   179  HIS179     -0.2867
     84  CB        55.6390   16.5810   37.4260 C.3   179  HIS179      0.0745
     85  CG        56.2460   17.7400   38.1840 C.ar  179  HIS179      0.0817
     86  ND1       57.4760   18.2940   37.8710 N.ar  179  HIS179     -0.2268
     87  CD2       55.8020   18.4150   39.2750 C.ar  179  HIS179      0.1154
     88  CE1       57.7650   19.2480   38.7400 C.ar  179  HIS179      0.1986
     89  NE2       56.7670   19.3430   39.6030 N.ar  179  HIS179     -0.2212
     90  N         60.3000   14.7230   40.8980 N.3   181  ARG181     -0.1245
     91  CA        60.9210   15.3630   42.0570 C.3   181  ARG181      0.1563
     92  C         62.3250   14.8140   42.2850 C.2   181  ARG181      0.2260
     93  O         62.9420   15.1280   43.3200 O.2   181  ARG181     -0.2867
     94  CB        60.1590   15.0620   43.3480 C.3   181  ARG181      0.0307
     95  CG        58.7460   15.4730   43.3830 C.3   181  ARG181      0.0489
     96  CD        58.5770   16.9320   43.6350 C.3   181  ARG181      0.2205
     97  NE        57.1470   17.1930   43.5890 N.pl3 181  ARG181     -0.0865
     98  CZ        56.6190   18.3860   43.3610 C.cat 181  ARG181      0.5346
     99  NH1       57.4090   19.4470   43.1650 N.pl3 181  ARG181      0.1354
    100  NH2       55.2980   18.4970   43.3050 N.pl3 181  ARG181      0.1354
    101  N         59.2060   20.9490   34.2550 N.3   204  VAL204     -0.1245
    102  CA        59.3980   21.9120   35.3610 C.3   204  VAL204      0.1561
    103  C         60.6190   21.2970   36.0580 C.2   204  VAL204      0.2260
    104  O         60.4820   20.4930   36.9890 O.2   204  VAL204     -0.2867
    105  CB        58.1760   21.8890   36.3060 C.3   204  VAL204      0.0252
    106  CG1       58.3300   22.9800   37.4340 C.3   204  VAL204      0.0019
    107  CG2       56.8870   22.0260   35.4730 C.3   204  VAL204      0.0019
    108  N         62.7150   22.1190   38.2780 N.3   206  THR206     -0.1218
    109  CA        63.0700   22.6640   39.5860 C.3   206  THR206      0.1862
    110  C         63.9300   21.7840   40.4340 C.2   206  THR206      0.2287
    111  O         64.8970   22.2900   41.0080 O.2   206  THR206     -0.2866
    112  CB        61.8020   22.9960   40.3960 C.3   206  THR206      0.1770
    113  OG1       61.0250   23.8890   39.6180 O.3   206  THR206     -0.2211
    114  CG2       62.1340   23.6290   41.7670 C.3   206  THR206      0.0375
    115  N         59.6240   26.8660   38.0170 N.3   228  GLY228     -0.1210
    116  CA        58.5210   26.7750   38.9490 C.3   228  GLY228      0.1956
    117  C         58.3760   27.6440   40.1460 C.2   228  GLY228      0.2611
    118  O         57.2240   28.0040   40.4810 O.2   228  GLY228     -0.2717
    119  N         59.5010   28.0140   40.7870 N.am  229  ASN229     -0.1974
    120  CA        59.3710   28.7990   42.0310 C.3   229  ASN229      0.1688
    121  C         60.5900   29.6620   42.3810 C.2   229  ASN229      0.2292
    122  O         60.8140   29.9910   43.5400 O.2   229  ASN229     -0.2864
    123  CB        59.0830   27.7990   43.2100 C.3   229  ASN229      0.1181
    124  CG        60.1660   26.6700   43.3400 C.2   229  ASN229      0.2629
    125  OD1       61.2900   26.8400   42.9000 O.2   229  ASN229     -0.2716
    126  ND2       59.7850   25.5130   43.9530 N.am  229  ASN229     -0.0877
@<TRIPOS>BOND
     1    72    73    1
     2    73    74    1
     3    73    76    1
     4    74    75    2
     5    76    77    1
     6    77    78    1
     7    77    79    1
     8    61    62    1
     9    62    63    1
    10    62    65    1
    11   101   102    1
    12     1     2    1
    13    63    64    2
    14     2     5    1
    15     2     3    1
    16    65    66    1
    17    80    81    1
    18   102   103    1
    19   102   105    1
    20    11    13   ar
    21    11     8   ar
    22   107   105    1
    23     5     6    1
    24    13    14   ar
    25   103   104    2
    26   105   106    1
    27     8     6   ar
    28     8    10   ar
    29    66    67    1
    30     6     7   ar
    31     3     4    2
    32    81    82    1
    33    81    84    1
    34    14    12   ar
    35    44    45    1
    36    52    53    1
    37    83    82    2
    38    67    68    1
    39    53    54    1
    40    53    56    1
    41    10    12   ar
    42    10     9   ar
    43    84    85    1
    44     7     9   ar
    45    45    46    1
    46    45    48    1
    47    54    55    2
    48    86    85   ar
    49    86    88   ar
    50   115   116    1
    51    85    87   ar
    52    46    47    2
    53   108   109    1
    54    56    57    1
    55    68    69    2
    56    48    49    1
    57    88    89   ar
    58   116   117    1
    59    15    16    1
    60    87    89   ar
    61    50    49   ar
    62    70    69    1
    63    49    51   ar
    64   109   112    1
    65   109   110    1
    66   113   112    1
    67    69    71    1
    68    57    58    1
    69    60    58   ar
    70   117   118    2
    71   117   119   am
    72    16    19    1
    73    16    17    1
    74   112   114    1
    75   110   111    2
    76    19    20    1
    77    58    59   ar
    78   119   120    1
    79    90    91    1
    80    17    21   am
    81    17    18    2
    82    21    22    1
    83   120   121    1
    84   120   123    1
    85    91    92    1
    86    91    94    1
    87    92    93    2
    88   121   122    2
    89   125   124    2
    90    22    23    1
    91    99    98    1
    92   123   124    1
    93   100    98    1
    94   124   126   am
    95    94    95    1
    96    98    97    2
    97    95    96    1
    98    97    96    1
    99    25    23   am
   100    25    26    1
   101    23    24    2
   102    29    26    1
   103    29    30    1
   104    26    27    1
   105    42    41   ar
   106    27    28    2
   107    32    30   ar
   108    32    34   ar
   109    30    31   ar
   110    43    41   ar
   111    41    40    1
   112    34    35   ar
   113    31    33   ar
   114    35    33   ar
   115    40    37    1
   116    39    38    2
   117    37    38    1
   118    37    36    1
