@<TRIPOS>MOLECULE
tmp/2hk1D00.pdb
 162 155 0 0 0
SMALL
GASTEIGER

@<TRIPOS>ATOM
      1  N         73.6400   18.8630   98.8030 N.3     5  TYR5       -0.1241
      2  CA        73.3260   18.5070  100.1810 C.3     5  TYR5        0.1605
      3  C         72.7920   17.0760  100.1150 C.2     5  TYR5        0.2264
      4  O         71.7900   16.8150   99.4570 O.2     5  TYR5       -0.2867
      5  CB        72.2620   19.4660  100.7090 C.3     5  TYR5        0.0534
      6  CG        71.9810   19.3900  102.1890 C.ar    5  TYR5       -0.0201
      7  CD1       72.9660   18.9970  103.0880 C.ar    5  TYR5       -0.0009
      8  CD2       70.7530   19.8160  102.6990 C.ar    5  TYR5       -0.0009
      9  CE1       72.7440   19.0350  104.4620 C.ar    5  TYR5        0.0417
     10  CE2       70.5200   19.8610  104.0700 C.ar    5  TYR5        0.0417
     11  CZ        71.5250   19.4690  104.9470 C.ar    5  TYR5        0.1957
     12  OH        71.3130   19.5260  106.3070 O.3     5  TYR5       -0.2866
     13  N         66.3540   14.0450  108.9110 N.3    13  TRP13      -0.1241
     14  CA        67.5850   14.7620  109.1630 C.3    13  TRP13       0.1605
     15  C         68.5860   13.8260  109.8250 C.2    13  TRP13       0.2264
     16  O         69.7860   13.9290  109.5890 O.2    13  TRP13      -0.2867
     17  CB        67.3340   15.9600  110.0790 C.3    13  TRP13       0.0550
     18  CG        66.5380   17.0690  109.4560 C.ar   13  TRP13       0.0003
     19  CD1       65.4050   17.6350  109.9580 C.ar   13  TRP13       0.0946
     20  CD2       66.8020   17.7330  108.2150 C.ar   13  TRP13       0.0152
     21  NE1       64.9400   18.6080  109.1080 N.ar   13  TRP13      -0.2442
     22  CE2       65.7780   18.6900  108.0280 C.ar   13  TRP13       0.0810
     23  CE3       67.8000   17.6150  107.2400 C.ar   13  TRP13       0.0012
     24  CZ2       65.7230   19.5210  106.9030 C.ar   13  TRP13       0.0191
     25  CZ3       67.7430   18.4440  106.1200 C.ar   13  TRP13       0.0001
     26  CH2       66.7110   19.3810  105.9650 C.ar   13  TRP13       0.0015
     27  N         76.4660   22.2240  106.9200 N.3    64  GLY64      -0.1210
     28  CA        75.3810   23.1320  107.2260 C.3    64  GLY64       0.1956
     29  C         74.9130   22.8750  108.6480 C.2    64  GLY64       0.2612
     30  O         74.8670   21.7240  109.0990 O.2    64  GLY64      -0.2717
     31  N         74.5840   23.9450  109.3670 N.am   65  ILE65      -0.1965
     32  CA        74.0990   23.8320  110.7440 C.3    65  ILE65       0.1727
     33  C         72.7700   24.5450  110.9670 C.2    65  ILE65       0.2616
     34  O         72.5620   25.6710  110.5120 O.2    65  ILE65      -0.2715
     35  CB        75.0820   24.4380  111.7800 C.3    65  ILE65       0.0290
     36  CG1       76.4480   23.7790  111.6670 C.3    65  ILE65       0.0022
     37  CG2       74.5390   24.2290  113.1960 C.3    65  ILE65       0.0023
     38  CD1       77.4400   24.2660  112.7290 C.3    65  ILE65       0.0001
     39  N         71.8800   23.8700  111.6830 N.am   66  GLY66      -0.1955
     40  CA        70.5900   24.4330  112.0320 C.3    66  GLY66       0.1869
     41  C         70.5640   24.3700  113.5520 C.2    66  GLY66       0.2309
     42  O         70.1540   23.3460  114.1160 O.2    66  GLY66      -0.2863
     43  N         77.7540   26.7210  107.0830 N.3   104  GLY104     -0.1210
     44  CA        76.7340   27.6980  106.7580 C.3   104  GLY104      0.1956
     45  C         75.4170   27.3770  107.4190 C.2   104  GLY104      0.2612
     46  O         75.2150   26.2750  107.9340 O.2   104  GLY104     -0.2717
     47  N         74.5210   28.3530  107.4130 N.am  105  GLY105     -0.1942
     48  CA        73.2200   28.1700  108.0090 C.3   105  GLY105      0.2014
     49  C         72.8290   29.4120  108.7550 C.2   105  GLY105      0.2638
     50  O         73.5040   30.4410  108.6450 O.2   105  GLY105     -0.2714
     51  N         71.7510   29.3220  109.5260 N.am  106  ALA106     -0.1977
     52  CA        71.2770   30.4690  110.2930 C.3   106  ALA106      0.1597
     53  C         72.0260   30.4520  111.6080 C.2   106  ALA106      0.2287
     54  O         71.4340   30.3380  112.6840 O.2   106  ALA106     -0.2864
     55  CB        69.7930   30.3610  110.5250 C.3   106  ALA106      0.0319
     56  N         66.9790   27.3060  113.7510 N.3   111  TRP111     -0.1241
     57  CA        66.0860   26.8680  112.6930 C.3   111  TRP111      0.1605
     58  C         65.6800   25.4480  113.0420 C.2   111  TRP111      0.2264
     59  O         66.4940   24.6820  113.5530 O.2   111  TRP111     -0.2867
     60  CB        66.8450   26.9010  111.3610 C.3   111  TRP111      0.0550
     61  CG        66.0190   26.6500  110.1460 C.ar  111  TRP111      0.0003
     62  CD1       65.4410   27.5860  109.3410 C.ar  111  TRP111      0.0946
     63  CD2       65.7070   25.3740  109.5670 C.ar  111  TRP111      0.0152
     64  NE1       64.7920   26.9790  108.2920 N.ar  111  TRP111     -0.2442
     65  CE2       64.9380   25.6210  108.4030 C.ar  111  TRP111      0.0810
     66  CE3       66.0050   24.0420  109.9160 C.ar  111  TRP111      0.0012
     67  CZ2       64.4600   24.5830  107.5800 C.ar  111  TRP111      0.0191
     68  CZ3       65.5300   23.0100  109.1010 C.ar  111  TRP111      0.0001
     69  CH2       64.7650   23.2870  107.9460 C.ar  111  TRP111      0.0015
     70  N         73.6470   32.4530  106.7580 N.3   149  GLU149     -0.1245
     71  CA        72.6600   32.3590  105.6880 C.3   149  GLU149      0.1567
     72  C         71.4620   33.2960  105.7710 C.2   149  GLU149      0.2260
     73  O         70.8000   33.3810  106.7850 O.2   149  GLU149     -0.2867
     74  CB        72.1660   30.9070  105.5230 C.3   149  GLU149      0.0388
     75  CG        71.2440   30.7430  104.3180 C.3   149  GLU149      0.1160
     76  CD        70.9110   29.2830  103.9880 C.2   149  GLU149      0.3649
     77  OE1       71.1790   28.3980  104.8240 O.co2 149  GLU149     -0.2457
     78  OE2       70.3730   29.0190  102.8950 O.co2 149  GLU149     -0.2457
     79  N         67.7650   34.0660  104.9090 N.3   151  LEU151     -0.1245
     80  CA        66.5840   33.2670  104.5990 C.3   151  LEU151      0.1561
     81  C         65.3350   34.1200  104.4550 C.2   151  LEU151      0.2260
     82  O         65.2820   35.2640  104.9160 O.2   151  LEU151     -0.2867
     83  CB        66.3350   32.2490  105.7160 C.3   151  LEU151      0.0270
     84  CG        67.5510   31.5220  106.3020 C.3   151  LEU151      0.0019
     85  CD1       67.2110   30.8730  107.6590 C.3   151  LEU151      0.0001
     86  CD2       68.0220   30.4820  105.3080 C.3   151  LEU151      0.0001
     87  N         61.0980   31.7830  107.3940 N.3   155  GLU155     -0.1245
     88  CA        62.0680   30.9740  108.1100 C.3   155  GLU155      0.1567
     89  C         63.0030   31.7070  109.0590 C.2   155  GLU155      0.2260
     90  O         63.6470   31.0770  109.9030 O.2   155  GLU155     -0.2867
     91  CB        62.8600   30.1530  107.1000 C.3   155  GLU155      0.0388
     92  CG        61.9640   29.1580  106.3730 C.3   155  GLU155      0.1160
     93  CD        62.7290   28.2870  105.4180 C.2   155  GLU155      0.3649
     94  OE1       63.6330   27.5830  105.8950 O.co2 155  GLU155     -0.2457
     95  OE2       62.4280   28.3050  104.2020 O.co2 155  GLU155     -0.2457
     96  N         71.1050   32.0060   99.0680 N.3   181  ASP181     -0.1239
     97  CA        70.4070   30.8060   98.6350 C.3   181  ASP181      0.1674
     98  C         69.3280   31.2810   97.6500 C.2   181  ASP181      0.2266
     99  O         68.4680   32.0980   98.0160 O.2   181  ASP181     -0.2867
    100  CB        69.7630   30.1700   99.8700 C.3   181  ASP181      0.1410
    101  CG        68.9410   28.9530   99.5460 C.2   181  ASP181      0.3668
    102  OD1       68.2530   28.9230   98.5000 O.co2 181  ASP181     -0.2456
    103  OD2       68.9630   28.0200  100.3590 O.co2 181  ASP181     -0.2456
    104  N         65.6590   31.3390   98.7220 N.3   184  HIS184     -0.1241
    105  CA        65.3080   32.4360   99.6220 C.3   184  HIS184      0.1621
    106  C         65.3740   33.8060   98.9450 C.2   184  HIS184      0.2264
    107  O         64.5840   34.7080   99.2440 O.2   184  HIS184     -0.2867
    108  CB        66.2160   32.3950  100.8490 C.3   184  HIS184      0.0745
    109  CG        66.0140   31.1720  101.6780 C.ar  184  HIS184      0.0817
    110  ND1       64.8350   30.9210  102.3490 N.ar  184  HIS184     -0.2268
    111  CD2       66.8100   30.1000  101.8940 C.ar  184  HIS184      0.1154
    112  CE1       64.9160   29.7430  102.9390 C.ar  184  HIS184      0.1986
    113  NE2       66.1040   29.2240  102.6790 N.ar  184  HIS184     -0.2212
    114  N         73.7880   28.6510   98.0420 N.3   206  HIS206     -0.1241
    115  CA        72.8700   27.5130   97.8950 C.3   206  HIS206      0.1621
    116  C         71.9630   27.7170   96.6670 C.2   206  HIS206      0.2264
    117  O         71.4860   28.8250   96.4210 O.2   206  HIS206     -0.2867
    118  CB        71.9990   27.3590   99.1470 C.3   206  HIS206      0.0745
    119  CG        72.6140   26.5180  100.2240 C.ar  206  HIS206      0.0817
    120  ND1       71.9650   26.2370  101.4080 N.ar  206  HIS206     -0.2268
    121  CD2       73.7960   25.8570  100.2790 C.ar  206  HIS206      0.1154
    122  CE1       72.7150   25.4360  102.1440 C.ar  206  HIS206      0.1986
    123  NE2       73.8340   25.1920  101.4810 N.ar  206  HIS206     -0.2212
    124  N         62.2190   24.4390   95.0740 N.3   212  ARG212     -0.1245
    125  CA        63.2280   23.5020   95.5570 C.3   212  ARG212      0.1563
    126  C         63.6270   22.2820   94.7060 C.2   212  ARG212      0.2260
    127  O         64.1890   21.3040   95.2240 O.2   212  ARG212     -0.2867
    128  CB        62.8310   23.0430   96.9600 C.3   212  ARG212      0.0307
    129  CG        62.5950   24.1870   97.9440 C.3   212  ARG212      0.0489
    130  CD        63.9080   24.6320   98.5590 C.3   212  ARG212      0.2205
    131  NE        63.7120   24.9300   99.9570 N.pl3 212  ARG212     -0.0865
    132  CZ        64.6740   25.2210  100.8230 C.cat 212  ARG212      0.5346
    133  NH1       65.9490   25.2680  100.4590 N.pl3 212  ARG212      0.1354
    134  NH2       64.3390   25.4590  102.0790 N.pl3 212  ARG212      0.1354
    135  N         70.6180   22.5150   96.8190 N.3   239  GLU239     -0.1245
    136  CA        69.9300   21.9830   97.9620 C.3   239  GLU239      0.1567
    137  C         68.4650   21.7150   97.5830 C.2   239  GLU239      0.2260
    138  O         67.5330   22.3830   98.0530 O.2   239  GLU239     -0.2867
    139  CB        70.0740   23.0140   99.0640 C.3   239  GLU239      0.0388
    140  CG        69.1460   22.8720  100.2140 C.3   239  GLU239      0.1160
    141  CD        69.3010   24.0210  101.1730 C.2   239  GLU239      0.3649
    142  OE1       69.2710   25.1740  100.7100 O.co2 239  GLU239     -0.2457
    143  OE2       69.4490   23.7630  102.3810 O.co2 239  GLU239     -0.2457
    144  N         64.8660   19.7630   97.4720 N.3   241  PHE241     -0.1241
    145  CA        64.0280   18.9930   98.3830 C.3   241  PHE241      0.1605
    146  C         62.7680   18.7260   97.5890 C.2   241  PHE241      0.2264
    147  O         61.9060   19.5890   97.5030 O.2   241  PHE241     -0.2867
    148  CB        63.6720   19.8170   99.6260 C.3   241  PHE241      0.0534
    149  CG        64.8300   20.0910  100.5250 C.ar  241  PHE241     -0.0203
    150  CD1       65.3590   19.0780  101.3330 C.ar  241  PHE241     -0.0042
    151  CD2       65.3960   21.3660  100.5780 C.ar  241  PHE241     -0.0042
    152  CE1       66.4370   19.3330  102.1840 C.ar  241  PHE241     -0.0003
    153  CE2       66.4790   21.6310  101.4270 C.ar  241  PHE241     -0.0003
    154  CZ        67.0000   20.6120  102.2320 C.ar  241  PHE241     -0.0000
    155  N         60.8510   21.3060  105.7550 N.3   252  ILE252     -0.1245
    156  CA        61.0300   22.0590  104.5170 C.3   252  ILE252      0.1561
    157  C         59.6790   22.3010  103.8610 C.2   252  ILE252      0.2260
    158  O         59.5740   23.0050  102.8600 O.2   252  ILE252     -0.2867
    159  CB        61.9960   21.3190  103.5540 C.3   252  ILE252      0.0252
    160  CG1       63.3720   21.2100  104.2200 C.3   252  ILE252      0.0019
    161  CG2       62.1130   22.0610  102.2290 C.3   252  ILE252      0.0019
    162  CD1       63.9830   22.5760  104.5870 C.3   252  ILE252      0.0001
@<TRIPOS>BOND
     1   126   127    2
     2   126   125    1
     3   124   125    1
     4   125   128    1
     5   117   116    2
     6   116   115    1
     7   135   136    1
     8   128   129    1
     9   144   145    1
    10   147   146    2
    11   137   136    1
    12   137   138    2
    13   146   145    1
    14    98    99    2
    15    98    97    1
    16   115   114    1
    17   115   118    1
    18   129   130    1
    19   136   139    1
    20   145   148    1
    21   102   101   ar
    22   130   131    1
    23    97    96    1
    24    97   100    1
    25   104   105    1
    26     1     2    1
    27   106   107    2
    28   106   105    1
    29   139   140    1
    30   118   119    1
    31     4     3    2
    32   101   100    1
    33   101   103   ar
    34   105   108    1
    35   148   149    1
    36   131   132    2
    37     3     2    1
    38     2     5    1
    39   140   141    1
    40   119   121   ar
    41   119   120   ar
    42   121   123   ar
    43   133   132    1
    44   149   151   ar
    45   149   150   ar
    46   151   153   ar
    47     5     6    1
    48   142   141   ar
    49   132   134    1
    50   108   109    1
    51   141   143   ar
    52   150   152   ar
    53   120   122   ar
    54   153   154   ar
    55   123   122   ar
    56   109   111   ar
    57   109   110   ar
    58   111   113   ar
    59   152   154   ar
    60     6     8   ar
    61     6     7   ar
    62   161   159    1
    63   110   112   ar
    64   113   112   ar
    65     8    10   ar
    66   158   157    2
    67    78    76   ar
    68     7     9   ar
    69   159   160    1
    70   159   156    1
    71   157   156    1
    72    76    75    1
    73    76    77   ar
    74    10    11   ar
    75    95    93   ar
    76   160   162    1
    77    75    74    1
    78    81    80    1
    79    81    82    2
    80     9    11   ar
    81   156   155    1
    82    80    79    1
    83    80    83    1
    84    11    12    1
    85    86    84    1
    86    93    94   ar
    87    93    92    1
    88    74    71    1
    89    71    72    1
    90    71    70    1
    91    83    84    1
    92    72    73    2
    93    26    25   ar
    94    26    24   ar
    95    25    23   ar
    96    84    85    1
    97    92    91    1
    98    44    43    1
    99    44    45    1
   100    24    22   ar
   101    27    28    1
   102    91    88    1
   103    28    29    1
   104    23    20   ar
   105    87    88    1
   106    47    45   am
   107    47    48    1
   108    45    46    2
   109    67    69   ar
   110    67    65   ar
   111    69    68   ar
   112    48    49    1
   113    22    20   ar
   114    22    21   ar
   115    88    89    1
   116    20    18   ar
   117    64    65   ar
   118    64    62   ar
   119    65    63   ar
   120    50    49    2
   121    29    30    2
   122    29    31   am
   123    49    51   am
   124    13    14    1
   125    89    90    2
   126    68    66   ar
   127    21    19   ar
   128    14    15    1
   129    14    17    1
   130    62    61   ar
   131    31    32    1
   132    18    19   ar
   133    18    17    1
   134    51    52    1
   135    63    66   ar
   136    63    61   ar
   137    16    15    2
   138    61    60    1
   139    52    55    1
   140    52    53    1
   141    34    33    2
   142    32    33    1
   143    32    35    1
   144    33    39   am
   145    60    57    1
   146    53    54    2
   147    36    35    1
   148    36    38    1
   149    39    40    1
   150    35    37    1
   151    40    41    1
   152    57    58    1
   153    57    56    1
   154    58    59    2
   155    41    42    2
