@<TRIPOS>MOLECULE
tmp/2hk5A00.pdb
 180 172 0 0 0
SMALL
GASTEIGER

@<TRIPOS>ATOM
      1  N         39.5160    9.2760   -6.8620 N.3    23  LEU23      -0.1245
      2  CA        40.5600    8.4200   -7.4020 C.3    23  LEU23       0.1561
      3  C         40.5060    7.0210   -6.8040 C.2    23  LEU23       0.2260
      4  O         40.8990    6.0500   -7.4430 O.2    23  LEU23      -0.2867
      5  CB        41.9210    9.0490   -7.1080 C.3    23  LEU23       0.0270
      6  CG        42.1390   10.3690   -7.8260 C.3    23  LEU23       0.0019
      7  CD1       43.4120   11.0270   -7.3520 C.3    23  LEU23       0.0001
      8  CD2       42.1520   10.1190   -9.3540 C.3    23  LEU23       0.0001
      9  N         40.4130    9.0890   -1.7020 N.3    31  VAL31      -0.1245
     10  CA        41.4360    9.8990   -2.3180 C.3    31  VAL31       0.1561
     11  C         40.8390   10.5900   -3.5590 C.2    31  VAL31       0.2260
     12  O         40.2750    9.9260   -4.4260 O.2    31  VAL31      -0.2867
     13  CB        42.6710    9.0810   -2.7270 C.3    31  VAL31       0.0252
     14  CG1       43.7130   10.0070   -3.3210 C.3    31  VAL31       0.0019
     15  CG2       43.2480    8.3140   -1.5540 C.3    31  VAL31       0.0019
     16  N         46.4900   16.0790   -4.8740 N.3    43  ALA43      -0.1231
     17  CA        45.7610   14.9200   -4.3580 C.3    43  ALA43       0.1694
     18  C         45.2820   15.1930   -2.9450 C.2    43  ALA43       0.2592
     19  O         46.0370   15.7880   -2.1400 O.2    43  ALA43      -0.2718
     20  CB        46.6460   13.7140   -4.3840 C.3    43  ALA43       0.0304
     21  N         44.0530   14.7700   -2.6330 N.am   44  VAL44      -0.1966
     22  CA        43.4780   14.9000   -1.2860 C.3    44  VAL44       0.1727
     23  C         43.0540   13.5270   -0.7380 C.2    44  VAL44       0.2616
     24  O         42.2780   12.7970   -1.3960 O.2    44  VAL44      -0.2715
     25  CB        42.2330   15.8250   -1.2460 C.3    44  VAL44       0.0290
     26  CG1       41.8590   16.1710    0.1910 C.3    44  VAL44       0.0023
     27  CG2       42.4400   17.1230   -2.0310 C.3    44  VAL44       0.0023
     28  N         43.6200   13.1480    0.4120 N.am   45  LYS45      -0.1977
     29  CA        43.1190   12.0580    1.2400 C.3    45  LYS45       0.1596
     30  C         42.1560   12.6030    2.3040 C.2    45  LYS45       0.2287
     31  O         42.5090   13.4910    3.0820 O.2    45  LYS45      -0.2864
     32  CB        44.2740   11.3210    1.8950 C.3    45  LYS45       0.0298
     33  CG        43.9460    9.9690    2.5440 C.3    45  LYS45       0.0038
     34  CD        45.0860    9.5480    3.4900 C.3    45  LYS45       0.0206
     35  CE        45.6480    8.1940    3.1370 C.3    45  LYS45       0.1093
     36  NZ        46.8610    7.8210    3.9570 N.3    45  LYS45      -0.1314
     37  N         50.4050   11.0150   10.2150 N.3    60  GLU60      -0.1245
     38  CA        51.0540   10.6760    8.9500 C.3    60  GLU60       0.1567
     39  C         51.6400   11.9330    8.2680 C.2    60  GLU60       0.2260
     40  O         52.7960   11.9340    7.7790 O.2    60  GLU60      -0.2867
     41  CB        50.0740    9.9490    8.0000 C.3    60  GLU60       0.0388
     42  CG        50.8140    9.2550    6.8600 C.3    60  GLU60       0.1160
     43  CD        49.9670    8.8140    5.6590 C.2    60  GLU60       0.3649
     44  OE1       48.7290    9.0190    5.6350 O.co2  60  GLU60      -0.2457
     45  OE2       50.5870    8.2770    4.7020 O.co2  60  GLU60      -0.2457
     46  N         55.5570   13.1880    7.2090 N.3    64  MET64      -0.1245
     47  CA        55.8830   13.6380    5.8600 C.3    64  MET64       0.1570
     48  C         56.4960   15.0160    5.8790 C.2    64  MET64       0.2261
     49  O         57.2610   15.3590    4.9910 O.2    64  MET64      -0.2867
     50  CB        54.6430   13.6170    4.9460 C.3    64  MET64       0.0387
     51  CG        54.0340   12.2190    4.7650 C.3    64  MET64       0.0595
     52  SD        52.3060   12.2110    4.1010 S.3    64  MET64      -0.1393
     53  CE        52.6470   12.6980    2.3480 C.3    64  MET64       0.0692
     54  N         56.6570   11.1240   -1.7030 N.3    73  VAL73      -0.1245
     55  CA        55.4700   11.8840   -2.1020 C.3    73  VAL73       0.1561
     56  C         55.3880   13.1360   -1.2110 C.2    73  VAL73       0.2260
     57  O         55.5830   13.0210    0.0070 O.2    73  VAL73      -0.2867
     58  CB        54.1950   11.0270   -1.9490 C.3    73  VAL73       0.0252
     59  CG1       52.9820   11.8380   -2.1890 C.3    73  VAL73       0.0019
     60  CG2       54.2010    9.8590   -2.9390 C.3    73  VAL73       0.0019
     61  N         44.3520   15.6000    4.0430 N.3    86  ILE86      -0.1245
     62  CA        45.7780   15.7640    3.7900 C.3    86  ILE86       0.1561
     63  C         45.9770   15.9770    2.3070 C.2    86  ILE86       0.2260
     64  O         45.4580   15.2090    1.4880 O.2    86  ILE86      -0.2867
     65  CB        46.5630   14.5350    4.2210 C.3    86  ILE86       0.0252
     66  CG1       46.4170   14.2650    5.7160 C.3    86  ILE86       0.0019
     67  CG2       48.0260   14.7100    3.8890 C.3    86  ILE86       0.0019
     68  CD1       46.9370   12.8710    6.1030 C.3    86  ILE86       0.0001
     69  N         48.5600   16.4030   -0.9890 N.3    88  THR88      -0.1203
     70  CA        49.9210   16.1650   -1.5100 C.3    88  THR88       0.1994
     71  C         50.0260   16.5170   -2.9740 C.2    88  THR88       0.2618
     72  O         49.0210   16.8200   -3.5990 O.2    88  THR88      -0.2717
     73  CB        50.3410   14.7000   -1.3910 C.3    88  THR88       0.1784
     74  OG1       49.5310   13.8750   -2.2330 O.3    88  THR88      -0.2211
     75  CG2       50.1680   14.1440   -0.0090 C.3    88  THR88       0.0376
     76  N         51.2330   16.4050   -3.5420 N.am   89  GLU89      -0.1965
     77  CA        51.3890   16.5080   -4.9810 C.3    89  GLU89       0.1733
     78  C         50.4880   15.4670   -5.6680 C.2    89  GLU89       0.2616
     79  O         50.1610   14.4480   -5.0960 O.2    89  GLU89      -0.2715
     80  CB        52.8650   16.3330   -5.4190 C.3    89  GLU89       0.0429
     81  CG        53.5520   14.9960   -5.1040 C.3    89  GLU89       0.1163
     82  CD        55.0610   15.0010   -5.4150 C.2    89  GLU89       0.3649
     83  OE1       55.4340   15.3820   -6.5660 O.co2  89  GLU89      -0.2457
     84  OE2       55.8970   14.6390   -4.5340 O.co2  89  GLU89      -0.2457
     85  N         50.0640   15.7570   -6.8830 N.am   90  PHE90      -0.1960
     86  CA        49.3060   14.8210   -7.7170 C.3    90  PHE90       0.1771
     87  C         50.2880   13.8980   -8.4690 C.2    90  PHE90       0.2619
     88  O         51.3540   14.3280   -8.8830 O.2    90  PHE90      -0.2715
     89  CB        48.3940   15.6160   -8.6720 C.3    90  PHE90       0.0574
     90  CG        47.6020   14.7720   -9.6140 C.ar   90  PHE90      -0.0200
     91  CD1       46.4820   14.0820   -9.1800 C.ar   90  PHE90      -0.0042
     92  CD2       47.9780   14.6590  -10.9510 C.ar   90  PHE90      -0.0042
     93  CE1       45.7340   13.2780  -10.0810 C.ar   90  PHE90      -0.0003
     94  CE2       47.2240   13.8720  -11.8560 C.ar   90  PHE90      -0.0003
     95  CZ        46.1050   13.1790  -11.4020 C.ar   90  PHE90      -0.0000
     96  N         49.9610   12.6080   -8.5920 N.am   91  MET91      -0.1963
     97  CA        50.8720   11.6490   -9.2470 C.3    91  MET91       0.1736
     98  C         50.1060   10.9130  -10.3340 C.2    91  MET91       0.2616
     99  O         49.4140    9.9200  -10.0680 O.2    91  MET91      -0.2715
    100  CB        51.4260   10.6590   -8.2300 C.3    91  MET91       0.0427
    101  CG        52.3070   11.2970   -7.1310 C.3    91  MET91       0.0599
    102  SD        53.9010   11.8490   -7.7070 S.3    91  MET91      -0.1393
    103  CE        54.8350   10.3460   -7.8400 C.3    91  MET91       0.0692
    104  N         50.2200   11.3990  -11.5630 N.am   92  ALA92      -0.1963
    105  CA        49.1720   11.1430  -12.5530 C.3    92  ALA92       0.1728
    106  C         48.9180    9.6610  -12.8020 C.2    92  ALA92       0.2616
    107  O         47.7750    9.2710  -13.0230 O.2    92  ALA92      -0.2715
    108  CB        49.4520   11.8750  -13.8740 C.3    92  ALA92       0.0334
    109  N         49.9520    8.8290  -12.7600 N.am   93  LYS93      -0.1963
    110  CA        49.7450    7.4140  -13.1260 C.3    93  LYS93       0.1728
    111  C         49.3340    6.5150  -11.9650 C.2    93  LYS93       0.2617
    112  O         49.2310    5.3100  -12.1350 O.2    93  LYS93      -0.2715
    113  CB        50.9770    6.8520  -13.8430 C.3    93  LYS93       0.0311
    114  CG        51.0080    7.2340  -15.3280 C.3    93  LYS93       0.0038
    115  CD        52.3840    7.6860  -15.7380 C.3    93  LYS93       0.0206
    116  CE        52.5270    7.8280  -17.2570 C.3    93  LYS93       0.1093
    117  NZ        51.4470    8.6770  -17.8530 N.3    93  LYS93      -0.1314
    118  N         49.1000    7.0820  -10.7840 N.am   94  GLY94      -0.1940
    119  CA        48.5630    6.3180   -9.6780 C.3    94  GLY94       0.2014
    120  C         49.5920    5.4470   -8.9930 C.2    94  GLY94       0.2639
    121  O         50.7860    5.7560   -8.9820 O.2    94  GLY94      -0.2714
    122  N         49.1130    4.3720   -8.3810 N.am   95  SER95      -0.1949
    123  CA        49.9880    3.4400   -7.6820 C.3    95  SER95       0.1924
    124  C         50.7980    2.6210   -8.6600 C.2    95  SER95       0.2314
    125  O         50.3560    2.3420   -9.7730 O.2    95  SER95      -0.2863
    126  CB        49.2060    2.5540   -6.7200 C.3    95  SER95       0.2116
    127  OG        49.1120    1.2210   -7.1660 O.3    95  SER95      -0.2180
    128  N         52.0550   -1.3600   -4.0270 N.3   140  ALA140     -0.1231
    129  CA        50.7980   -0.7210   -3.6770 C.3   140  ALA140      0.1694
    130  C         50.9750    0.6550   -3.0630 C.2   140  ALA140      0.2592
    131  O         50.1010    1.4710   -3.2330 O.2   140  ALA140     -0.2718
    132  CB        50.0240   -1.5940   -2.7010 C.3   140  ALA140      0.0304
    133  N         52.0900    0.8820   -2.3550 N.am  141  ASN141     -0.1960
    134  CA        52.3840    2.1110   -1.6030 C.3   141  ASN141      0.1819
    135  C         53.4330    3.0660   -2.2740 C.2   141  ASN141      0.2621
    136  O         54.1010    3.8790   -1.5950 O.2   141  ASN141     -0.2715
    137  CB        52.8780    1.6860   -0.2030 C.3   141  ASN141      0.1195
    138  CG        51.7440    1.0870    0.6520 C.2   141  ASN141      0.2630
    139  OD1       50.5910    1.1920    0.2870 O.2   141  ASN141     -0.2716
    140  ND2       52.0780    0.4660    1.7750 N.am  141  ASN141     -0.0877
    141  N         53.6150    2.8880   -3.5780 N.am  142  ILE142     -0.1963
    142  CA        54.5040    3.6960   -4.3930 C.3   142  ILE142      0.1727
    143  C         53.5850    4.3920   -5.3730 C.2   142  ILE142      0.2616
    144  O         52.6200    3.7960   -5.8230 O.2   142  ILE142     -0.2715
    145  CB        55.5370    2.7980   -5.1760 C.3   142  ILE142      0.0290
    146  CG1       56.3860    1.9290   -4.2450 C.3   142  ILE142      0.0022
    147  CG2       56.4450    3.6570   -6.0920 C.3   142  ILE142      0.0023
    148  CD1       57.2100    2.6790   -3.2330 C.3   142  ILE142      0.0001
    149  N         53.8380    5.6630   -5.6680 N.am  143  LEU143     -0.1977
    150  CA        53.0460    6.3820   -6.6660 C.3   143  LEU143      0.1596
    151  C         53.9540    6.7740   -7.8370 C.2   143  LEU143      0.2287
    152  O         55.1480    6.9540   -7.6420 O.2   143  LEU143     -0.2864
    153  CB        52.3840    7.6270   -6.0500 C.3   143  LEU143      0.0297
    154  CG        51.2030    7.4120   -5.0840 C.3   143  LEU143      0.0022
    155  CD1       50.8250    8.6600   -4.3060 C.3   143  LEU143      0.0001
    156  CD2       49.9760    6.9130   -5.8050 C.3   143  LEU143      0.0001
    157  N         55.0360    6.4530   -0.7620 N.3   153  ALA153     -0.1231
    158  CA        53.8870    6.9360   -0.0550 C.3   153  ALA153      0.1694
    159  C         53.6160    6.0340    1.1680 C.2   153  ALA153      0.2592
    160  O         54.4090    5.1460    1.5110 O.2   153  ALA153     -0.2718
    161  CB        52.6950    6.9180   -0.9830 C.3   153  ALA153      0.0304
    162  N         52.4460    6.2570    1.7560 N.am  154  ASP154     -0.1960
    163  CA        51.9610    5.6350    2.9690 C.3   154  ASP154      0.1840
    164  C         52.9930    5.5980    4.0950 C.2   154  ASP154      0.2622
    165  O         53.7240    4.6120    4.2620 O.2   154  ASP154     -0.2715
    166  CB        51.3710    4.2560    2.6780 C.3   154  ASP154      0.1450
    167  CG        50.1840    3.9340    3.5780 C.2   154  ASP154      0.3671
    168  OD1       50.2760    4.2160    4.8190 O.co2 154  ASP154     -0.2456
    169  OD2       49.1070    3.4330    3.1400 O.co2 154  ASP154     -0.2456
    170  N         53.0270    6.6760    4.8790 N.am  155  PHE155     -0.1974
    171  CA        53.9240    6.7370    6.0260 C.3   155  PHE155      0.1639
    172  C         53.2190    6.4820    7.3560 C.2   155  PHE155      0.2290
    173  O         53.7000    6.8970    8.4020 O.2   155  PHE155     -0.2864
    174  CB        54.6490    8.0790    6.0150 C.3   155  PHE155      0.0560
    175  CG        55.3670    8.3460    4.7260 C.ar  155  PHE155     -0.0200
    176  CD1       56.6890    7.9690    4.5660 C.ar  155  PHE155     -0.0042
    177  CD2       54.7110    8.9400    3.6490 C.ar  155  PHE155     -0.0042
    178  CE1       57.3670    8.2120    3.3600 C.ar  155  PHE155     -0.0003
    179  CE2       55.3840    9.1770    2.4500 C.ar  155  PHE155     -0.0003
    180  CZ        56.7110    8.8260    2.3090 C.ar  155  PHE155     -0.0000
@<TRIPOS>BOND
     1   117   116    1
     2   116   115    1
     3   115   114    1
     4   114   113    1
     5   108   105    1
     6   113   110    1
     7   110   109    1
     8   110   111    1
     9   107   106    2
    10   106   109   am
    11   106   105    1
    12   105   104    1
    13   112   111    2
    14   111   118   am
    15    94    95   ar
    16    94    92   ar
    17   104    98   am
    18    95    93   ar
    19    92    90   ar
    20   118   119    1
    21    98    99    2
    22    98    97    1
    23    93    91   ar
    24   125   124    2
    25   119   120    1
    26    90    91   ar
    27    90    89    1
    28     8     6    1
    29    97    96    1
    30    97   100    1
    31   120   121    2
    32   120   122   am
    33    88    87    2
    34    89    86    1
    35   124   123    1
    36    96    87   am
    37    87    86    1
    38   122   123    1
    39   100   101    1
    40   103   102    1
    41   151   152    2
    42   151   150    1
    43     6     7    1
    44     6     5    1
    45    86    85    1
    46   102   101    1
    47   123   126    1
    48     4     3    2
    49     2     5    1
    50     2     1    1
    51     2     3    1
    52   127   126    1
    53    85    78   am
    54   150   153    1
    55   150   149    1
    56    83    82   ar
    57   147   145    1
    58   153   154    1
    59   144   143    2
    60   156   154    1
    61    78    79    2
    62    78    77    1
    63   149   143   am
    64    80    81    1
    65    80    77    1
    66    82    81    1
    67    82    84   ar
    68   143   142    1
    69   145   142    1
    70   145   146    1
    71   154   155    1
    72    77    76    1
    73    16    17    1
    74    12    11    2
    75   142   141    1
    76    20    17    1
    77    17    18    1
    78   146   148    1
    79   128   129    1
    80   129   130    1
    81   129   132    1
    82    72    71    2
    83   141   135   am
    84    11    10    1
    85    76    71   am
    86    14    13    1
    87   131   130    2
    88   130   133   am
    89    71    70    1
    90    18    21   am
    91    18    19    2
    92    60    58    1
    93    13    10    1
    94    13    15    1
    95    21    22    1
    96   133   134    1
    97    10     9    1
    98   135   134    1
    99   135   136    2
   100    74    73    1
   101    59    58    1
   102    55    58    1
   103    55    54    1
   104    55    56    1
   105    27    25    1
   106   134   137    1
   107    70    73    1
   108    70    69    1
   109    24    23    2
   110    73    75    1
   111    22    25    1
   112    22    23    1
   113    25    26    1
   114    56    57    2
   115   161   158    1
   116   157   158    1
   117    23    28   am
   118   137   138    1
   119   158   159    1
   120   139   138    2
   121    28    29    1
   122   138   140   am
   123   159   160    2
   124   159   162   am
   125    29    32    1
   126    29    30    1
   127    64    63    2
   128   162   163    1
   129    32    33    1
   130    30    31    2
   131    63    62    1
   132   180   179   ar
   133   180   178   ar
   134    53    52    1
   135   179   177   ar
   136    33    34    1
   137   166   163    1
   138   166   167    1
   139   163   164    1
   140    35    34    1
   141    35    36    1
   142   169   167   ar
   143   178   176   ar
   144   167   168   ar
   145   177   175   ar
   146    62    61    1
   147    62    65    1
   148    67    65    1
   149   164   165    2
   150   164   170   am
   151    52    51    1
   152    65    66    1
   153   176   175   ar
   154    45    43   ar
   155   175   174    1
   156    51    50    1
   157   170   171    1
   158    50    47    1
   159    49    48    2
   160    44    43   ar
   161    43    42    1
   162    66    68    1
   163    47    48    1
   164    47    46    1
   165   174   171    1
   166   171   172    1
   167    42    41    1
   168   172   173    2
   169    40    39    2
   170    41    38    1
   171    39    38    1
   172    38    37    1
