@<TRIPOS>MOLECULE
tmp/2hkaB01.pdb
 190 181 0 0 0
SMALL
GASTEIGER

@<TRIPOS>ATOM
      1  N        -28.6260  -63.3280   15.7960 N.3    20  VAL20      -0.1245
      2  CA       -28.8820  -64.4590   14.8990 C.3    20  VAL20       0.1561
      3  C        -28.4930  -65.7320   15.6420 C.2    20  VAL20       0.2260
      4  O        -27.3850  -65.8250   16.1770 O.2    20  VAL20      -0.2867
      5  CB       -28.0350  -64.3460   13.6080 C.3    20  VAL20       0.0252
      6  CG1      -28.2980  -65.5380   12.6890 C.3    20  VAL20       0.0019
      7  CG2      -28.3730  -63.0580   12.8780 C.3    20  VAL20       0.0019
      8  N        -24.8940  -70.9000    7.5840 N.3    30  LEU30      -0.1245
      9  CA       -26.2570  -71.4240    7.5800 C.3    30  LEU30       0.1561
     10  C        -26.2550  -72.8070    6.9270 C.2    30  LEU30       0.2260
     11  O        -26.1290  -72.9310    5.7130 O.2    30  LEU30      -0.2867
     12  CB       -27.1770  -70.4680    6.8180 C.3    30  LEU30       0.0270
     13  CG       -27.0050  -68.9860    7.1880 C.3    30  LEU30       0.0019
     14  CD1      -28.0670  -68.1710    6.4730 C.3    30  LEU30       0.0001
     15  CD2      -27.1060  -68.7820    8.6970 C.3    30  LEU30       0.0001
     16  N        -32.6860  -70.8320   11.2370 N.3    36  TYR36      -0.1227
     17  CA       -31.9890  -69.7840   11.9610 C.3    36  TYR36       0.1736
     18  C        -32.9580  -68.6780   12.3430 C.2    36  TYR36       0.2596
     19  O        -33.7650  -68.2350   11.5270 O.2    36  TYR36      -0.2718
     20  CB       -30.8540  -69.2580   11.0810 C.3    36  TYR36       0.0548
     21  CG       -29.8220  -70.3340   10.8190 C.ar   36  TYR36      -0.0200
     22  CD1      -28.6790  -70.4300   11.6110 C.ar   36  TYR36      -0.0009
     23  CD2      -30.0510  -71.3310    9.8650 C.ar   36  TYR36      -0.0009
     24  CE1      -27.7880  -71.4950   11.4680 C.ar   36  TYR36       0.0417
     25  CE2      -29.1680  -72.4120    9.7210 C.ar   36  TYR36       0.0417
     26  CZ       -28.0410  -72.4820   10.5280 C.ar   36  TYR36       0.1957
     27  OH       -27.1670  -73.5400   10.4030 O.3    36  TYR36      -0.2866
     28  N        -32.8940  -68.2600   13.5990 N.am   37  SER37      -0.1938
     29  CA       -33.7830  -67.2220   14.0840 C.3    37  SER37       0.2055
     30  C        -33.0800  -65.8810   14.1530 C.2    37  SER37       0.2642
     31  O        -31.8560  -65.8060   14.2610 O.2    37  SER37      -0.2714
     32  CB       -34.3120  -67.5870   15.4720 C.3    37  SER37       0.2130
     33  OG       -33.2610  -67.6100   16.4230 O.3    37  SER37      -0.2179
     34  N        -33.8710  -64.8200   14.0740 N.am   38  VAL38      -0.1977
     35  CA       -33.3400  -63.4750   14.1590 C.3    38  VAL38       0.1596
     36  C        -34.1750  -62.7230   15.1830 C.2    38  VAL38       0.2287
     37  O        -35.4000  -62.8440   15.2130 O.2    38  VAL38      -0.2864
     38  CB       -33.4070  -62.7440   12.7970 C.3    38  VAL38       0.0276
     39  CG1      -34.8530  -62.5810   12.3540 C.3    38  VAL38       0.0022
     40  CG2      -32.7210  -61.3930   12.9020 C.3    38  VAL38       0.0022
     41  N        -37.1610  -58.9710    3.1180 N.3    55  VAL55      -0.1245
     42  CA       -35.8460  -59.5930    3.1220 C.3    55  VAL55       0.1561
     43  C        -35.2800  -59.7340    1.7170 C.2    55  VAL55       0.2260
     44  O        -35.9930  -60.0930    0.7800 O.2    55  VAL55      -0.2867
     45  CB       -35.9020  -60.9970    3.7700 C.3    55  VAL55       0.0252
     46  CG1      -34.5160  -61.6280    3.7740 C.3    55  VAL55       0.0019
     47  CG2      -36.4450  -60.8950    5.1860 C.3    55  VAL55       0.0019
     48  N        -31.6480  -61.0890   -0.5170 N.3    57  GLY57      -0.1225
     49  CA       -30.4090  -61.8340   -0.4800 C.3    57  GLY57       0.1811
     50  C        -29.5820  -61.3360   -1.6460 C.2    57  GLY57       0.2280
     51  O        -30.0000  -61.4540   -2.7960 O.2    57  GLY57      -0.2866
     52  N        -27.1060  -61.9080   -4.1130 N.3    59  VAL59      -0.1245
     53  CA       -26.4000  -63.0110   -4.7510 C.3    59  VAL59       0.1561
     54  C        -25.6120  -62.5100   -5.9540 C.2    59  VAL59       0.2260
     55  O        -26.1890  -62.0410   -6.9350 O.2    59  VAL59      -0.2867
     56  CB       -27.3890  -64.0990   -5.2170 C.3    59  VAL59       0.0252
     57  CG1      -26.6340  -65.2610   -5.8430 C.3    59  VAL59       0.0019
     58  CG2      -28.2240  -64.5770   -4.0380 C.3    59  VAL59       0.0019
     59  N        -31.7710  -60.1160   -4.4170 N.3    64  VAL64      -0.1245
     60  CA       -32.8760  -61.0160   -4.7290 C.3    64  VAL64       0.1561
     61  C        -33.9220  -61.0190   -3.6230 C.2    64  VAL64       0.2260
     62  O        -33.6200  -61.3420   -2.4720 O.2    64  VAL64      -0.2867
     63  CB       -32.3810  -62.4700   -4.9300 C.3    64  VAL64       0.0252
     64  CG1      -33.5630  -63.3810   -5.2580 C.3    64  VAL64       0.0019
     65  CG2      -31.3400  -62.5260   -6.0390 C.3    64  VAL64       0.0019
     66  N        -36.5700  -62.1390   -1.0910 N.3    66  PHE66      -0.1241
     67  CA       -36.7860  -63.4260   -0.4580 C.3    66  PHE66       0.1605
     68  C        -38.1000  -63.3970    0.3130 C.2    66  PHE66       0.2264
     69  O        -38.1850  -62.8270    1.4020 O.2    66  PHE66      -0.2867
     70  CB       -35.6300  -63.7450    0.4870 C.3    66  PHE66       0.0534
     71  CG       -35.6680  -65.1410    1.0280 C.ar   66  PHE66      -0.0203
     72  CD1      -35.4080  -66.2260    0.1980 C.ar   66  PHE66      -0.0042
     73  CD2      -35.9690  -65.3720    2.3610 C.ar   66  PHE66      -0.0042
     74  CE1      -35.4460  -67.5260    0.6890 C.ar   66  PHE66      -0.0003
     75  CE2      -36.0100  -66.6700    2.8670 C.ar   66  PHE66      -0.0003
     76  CZ       -35.7480  -67.7480    2.0270 C.ar   66  PHE66      -0.0000
     77  N        -36.1040  -68.6690    9.7620 N.3    94  LEU94      -0.1231
     78  CA       -36.1830  -69.1900    8.4060 C.3    94  LEU94       0.1678
     79  C        -35.3290  -70.4410    8.2400 C.2    94  LEU94       0.2434
     80  O        -34.2570  -70.5600    8.8330 O.2    94  LEU94      -0.2733
     81  CB       -35.7390  -68.1150    7.4130 C.3    94  LEU94       0.0284
     82  CG       -36.5970  -66.8460    7.4290 C.3    94  LEU94       0.0019
     83  CD1      -35.9440  -65.7650    6.5850 C.3    94  LEU94       0.0001
     84  CD2      -37.9930  -67.1680    6.9130 C.3    94  LEU94       0.0001
     85  N        -35.8070  -71.3990    7.4330 N.am   95  PRO95      -0.2718
     86  CA       -35.0840  -72.6470    7.1900 C.3    95  PRO95       0.1535
     87  C        -34.1360  -72.5630    6.0010 C.2    95  PRO95       0.2598
     88  O        -34.3710  -71.8130    5.0520 O.2    95  PRO95      -0.2715
     89  CB       -36.2100  -73.6370    6.9410 C.3    95  PRO95       0.0310
     90  CG       -37.1640  -72.8040    6.1340 C.3    95  PRO95       0.0237
     91  CD       -37.1790  -71.4810    6.8940 C.3    95  PRO95       0.0939
     92  N        -33.0550  -73.3320    6.0650 N.am   96  VAL96      -0.1978
     93  CA       -32.0920  -73.3780    4.9780 C.3    96  VAL96       0.1596
     94  C        -32.4440  -74.6340    4.1970 C.2    96  VAL96       0.2287
     95  O        -32.1440  -75.7470    4.6280 O.2    96  VAL96      -0.2864
     96  CB       -30.6450  -73.4970    5.4960 C.3    96  VAL96       0.0276
     97  CG1      -29.6770  -73.5620    4.3200 C.3    96  VAL96       0.0022
     98  CG2      -30.3140  -72.3130    6.3910 C.3    96  VAL96       0.0022
     99  N        -30.7010  -75.1440   -1.5720 N.3   100  TYR100     -0.1228
    100  CA       -29.9280  -73.9050   -1.6830 C.3   100  TYR100      0.1721
    101  C        -28.4470  -74.1400   -1.9450 C.2   100  TYR100      0.2437
    102  O        -27.8320  -75.0380   -1.3690 O.2   100  TYR100     -0.2733
    103  CB       -30.0630  -73.0390   -0.4150 C.3   100  TYR100      0.0547
    104  CG       -31.4510  -72.5080   -0.1300 C.ar  100  TYR100     -0.0200
    105  CD1      -32.3980  -72.3610   -1.1460 C.ar  100  TYR100     -0.0009
    106  CD2      -31.8060  -72.1100    1.1590 C.ar  100  TYR100     -0.0009
    107  CE1      -33.6630  -71.8300   -0.8830 C.ar  100  TYR100      0.0417
    108  CE2      -33.0670  -71.5780    1.4310 C.ar  100  TYR100      0.0417
    109  CZ       -33.9880  -71.4400    0.4100 C.ar  100  TYR100      0.1957
    110  OH       -35.2300  -70.9250    0.6880 O.3   100  TYR100     -0.2866
    111  N        -27.8460  -73.3160   -2.8160 N.am  101  PRO101     -0.2729
    112  CA       -26.4220  -73.4600   -3.1310 C.3   101  PRO101      0.1401
    113  C        -25.5670  -73.0220   -1.9450 C.2   101  PRO101      0.2269
    114  O        -25.9260  -72.0970   -1.2260 O.2   101  PRO101     -0.2865
    115  CB       -26.2490  -72.5510   -4.3430 C.3   101  PRO101      0.0296
    116  CG       -27.2330  -71.4300   -4.0460 C.3   101  PRO101      0.0237
    117  CD       -28.4510  -72.2010   -3.5700 C.3   101  PRO101      0.0939
    118  N        -23.2320  -71.0210   -1.1370 N.3   103  ILE103     -0.1245
    119  CA       -22.5000  -69.8180   -1.5040 C.3   103  ILE103      0.1561
    120  C        -22.5900  -68.7310   -0.4460 C.2   103  ILE103      0.2260
    121  O        -23.3430  -68.8440    0.5290 O.2   103  ILE103     -0.2867
    122  CB       -23.0490  -69.2330   -2.8130 C.3   103  ILE103      0.0252
    123  CG1      -24.5420  -68.9210   -2.6420 C.3   103  ILE103      0.0019
    124  CG2      -22.8350  -70.2170   -3.9440 C.3   103  ILE103      0.0019
    125  CD1      -25.1750  -68.1530   -3.7980 C.3   103  ILE103      0.0001
    126  N        -23.6040  -64.9910    0.7340 N.3   105  VAL105     -0.1245
    127  CA       -24.7110  -64.0970    0.4360 C.3   105  VAL105      0.1561
    128  C        -24.7410  -62.9770    1.4670 C.2   105  VAL105      0.2260
    129  O        -24.3980  -63.1920    2.6250 O.2   105  VAL105     -0.2867
    130  CB       -26.0740  -64.8360    0.5390 C.3   105  VAL105      0.0252
    131  CG1      -27.2110  -63.9130    0.1110 C.3   105  VAL105      0.0019
    132  CG2      -26.0610  -66.1010   -0.3050 C.3   105  VAL105      0.0019
    133  N        -27.2010  -60.7860    3.4390 N.3   107  VAL107     -0.1245
    134  CA       -28.6140  -60.7550    3.7610 C.3   107  VAL107      0.1561
    135  C        -29.0090  -59.3680    4.2070 C.2   107  VAL107      0.2260
    136  O        -28.3430  -58.7680    5.0440 O.2   107  VAL107     -0.2867
    137  CB       -28.9600  -61.7550    4.8950 C.3   107  VAL107      0.0252
    138  CG1      -30.4410  -61.6420    5.2620 C.3   107  VAL107      0.0019
    139  CG2      -28.6430  -63.1710    4.4520 C.3   107  VAL107      0.0019
    140  N        -32.1760  -57.1250    5.7730 N.3   109  TRP109     -0.1241
    141  CA       -33.4690  -57.2310    6.4350 C.3   109  TRP109      0.1605
    142  C        -33.9650  -55.8310    6.7730 C.2   109  TRP109      0.2264
    143  O        -33.2420  -55.0330    7.3730 O.2   109  TRP109     -0.2867
    144  CB       -33.3480  -58.0660    7.7130 C.3   109  TRP109      0.0550
    145  CG       -34.6040  -58.8100    8.0660 C.ar  109  TRP109      0.0003
    146  CD1      -35.8460  -58.2810    8.2650 C.ar  109  TRP109      0.0946
    147  CD2      -34.7350  -60.2250    8.2580 C.ar  109  TRP109      0.0152
    148  NE1      -36.7450  -59.2780    8.5700 N.ar  109  TRP109     -0.2442
    149  CE2      -36.0890  -60.4800    8.5730 C.ar  109  TRP109      0.0810
    150  CE3      -33.8400  -61.3010    8.1960 C.ar  109  TRP109      0.0012
    151  CZ2      -36.5700  -61.7710    8.8240 C.ar  109  TRP109      0.0191
    152  CZ3      -34.3200  -62.5860    8.4460 C.ar  109  TRP109      0.0001
    153  CH2      -35.6730  -62.8070    8.7560 C.ar  109  TRP109      0.0015
    154  N        -30.6030  -53.5550    7.9750 N.3   122  TRP122     -0.1241
    155  CA       -29.2520  -54.0080    8.2350 C.3   122  TRP122      0.1605
    156  C        -28.8570  -55.0920    7.2530 C.2   122  TRP122      0.2264
    157  O        -29.7080  -55.7340    6.6330 O.2   122  TRP122     -0.2867
    158  CB       -29.1060  -54.5280    9.6730 C.3   122  TRP122      0.0550
    159  CG       -30.1710  -55.5150   10.1140 C.ar  122  TRP122      0.0003
    160  CD1      -31.3120  -55.2300   10.8110 C.ar  122  TRP122      0.0946
    161  CD2      -30.1670  -56.9360    9.9170 C.ar  122  TRP122      0.0152
    162  NE1      -32.0160  -56.3830   11.0670 N.ar  122  TRP122     -0.2442
    163  CE2      -31.3370  -57.4440   10.5280 C.ar  122  TRP122      0.0810
    164  CE3      -29.2900  -57.8280    9.2850 C.ar  122  TRP122      0.0012
    165  CZ2      -31.6530  -58.8080   10.5260 C.ar  122  TRP122      0.0191
    166  CZ3      -29.6060  -59.1900    9.2840 C.ar  122  TRP122      0.0001
    167  CH2      -30.7800  -59.6620    9.9020 C.ar  122  TRP122      0.0015
    168  N        -25.8820  -58.3490    6.7500 N.3   124  ILE124     -0.1245
    169  CA       -24.8210  -59.1490    7.3310 C.3   124  ILE124      0.1561
    170  C        -24.4210  -60.1710    6.2860 C.2   124  ILE124      0.2260
    171  O        -25.2290  -60.5700    5.4460 O.2   124  ILE124     -0.2867
    172  CB       -25.2530  -59.9150    8.6100 C.3   124  ILE124      0.0252
    173  CG1      -26.3970  -60.8790    8.2930 C.3   124  ILE124      0.0019
    174  CG2      -25.6610  -58.9420    9.6990 C.3   124  ILE124      0.0019
    175  CD1      -26.7960  -61.7370    9.4850 C.3   124  ILE124      0.0001
    176  N        -23.3910  -63.9030    5.1120 N.3   126  ILE126     -0.1245
    177  CA       -23.6020  -65.2660    5.5820 C.3   126  ILE126      0.1561
    178  C        -23.0470  -66.1930    4.5200 C.2   126  ILE126      0.2260
    179  O        -22.7460  -65.7670    3.4010 O.2   126  ILE126     -0.2867
    180  CB       -25.1160  -65.6090    5.8310 C.3   126  ILE126      0.0252
    181  CG1      -25.9140  -65.5860    4.5240 C.3   126  ILE126      0.0019
    182  CG2      -25.7070  -64.6440    6.8500 C.3   126  ILE126      0.0019
    183  CD1      -25.8140  -66.8770    3.7100 C.3   126  ILE126      0.0001
    184  N        -23.8830  -70.1380    3.0680 N.3   128  VAL128     -0.1245
    185  CA       -24.6650  -71.3650    3.1450 C.3   128  VAL128      0.1561
    186  C        -23.6880  -72.5350    3.0270 C.2   128  VAL128      0.2260
    187  O        -22.7680  -72.4980    2.2060 O.2   128  VAL128     -0.2867
    188  CB       -25.7010  -71.4500    2.0020 C.3   128  VAL128      0.0252
    189  CG1      -26.4140  -72.7940    2.0490 C.3   128  VAL128      0.0019
    190  CG2      -26.7140  -70.3170    2.1320 C.3   128  VAL128      0.0019
@<TRIPOS>BOND
     1    55    54    2
     2    65    63    1
     3    54    53    1
     4    57    56    1
     5    64    63    1
     6    56    53    1
     7    56    58    1
     8    63    60    1
     9    53    52    1
    10    60    59    1
    11    60    61    1
    12   115   116    1
    13   115   112    1
    14   116   117    1
    15   124   122    1
    16   125   123    1
    17    61    62    2
    18   117   111    1
    19   112   111    1
    20   112   113    1
    21   111   101   am
    22   122   123    1
    23   122   119    1
    24    51    50    2
    25   113   114    2
    26   101   100    1
    27   101   102    2
    28   100    99    1
    29   100   103    1
    30    50    49    1
    31   119   118    1
    32   119   120    1
    33   105   107   ar
    34   105   104   ar
    35    66    67    1
    36   107   109   ar
    37    48    49    1
    38    67    68    1
    39    67    70    1
    40   120   121    2
    41   103   104    1
    42   132   130    1
    43   104   106   ar
    44   131   130    1
    45    72    74   ar
    46    72    71   ar
    47    68    69    2
    48   109   110    1
    49   109   108   ar
    50   127   130    1
    51   127   126    1
    52   127   128    1
    53    70    71    1
    54    74    76   ar
    55    44    43    2
    56    71    73   ar
    57   106   108   ar
    58   128   129    2
    59    43    42    1
    60   188   189    1
    61   188   190    1
    62   188   185    1
    63    76    75   ar
    64   187   186    2
    65    73    75   ar
    66   186   185    1
    67   184   185    1
    68    41    42    1
    69    42    45    1
    70   179   178    2
    71   133   134    1
    72   183   181    1
    73   134   135    1
    74   134   137    1
    75    45    46    1
    76    45    47    1
    77    94    95    2
    78    94    93    1
    79   135   136    2
    80    97    96    1
    81   139   137    1
    82   178   177    1
    83   181   180    1
    84   137   138    1
    85    93    96    1
    86    93    92    1
    87    88    87    2
    88   176   177    1
    89   171   170    2
    90    96    98    1
    91   177   180    1
    92    11    10    2
    93   140   141    1
    94   180   182    1
    95    87    92   am
    96    87    86    1
    97    90    91    1
    98    90    89    1
    99   170   169    1
   100   141   142    1
   101   141   144    1
   102    14    13    1
   103    83    82    1
   104   157   156    2
   105   168   169    1
   106   142   143    2
   107    12    13    1
   108    12     9    1
   109    91    85    1
   110    84    82    1
   111    10     9    1
   112    89    86    1
   113    13    15    1
   114    86    85    1
   115   156   155    1
   116   169   172    1
   117    81    82    1
   118    81    78    1
   119    85    79   am
   120     9     8    1
   121   144   145    1
   122   154   155    1
   123   145   147   ar
   124   145   146   ar
   125   150   147   ar
   126   150   152   ar
   127   155   158    1
   128    79    78    1
   129    79    80    2
   130   147   149   ar
   131   146   148   ar
   132   173   172    1
   133   173   175    1
   134    78    77    1
   135   152   153   ar
   136   148   149   ar
   137   149   151   ar
   138   172   174    1
   139   153   151   ar
   140   166   164   ar
   141   166   167   ar
   142   164   161   ar
   143   158   159    1
   144    25    23   ar
   145    25    26   ar
   146    23    21   ar
   147   167   165   ar
   148   161   159   ar
   149   161   163   ar
   150   159   160   ar
   151    27    26    1
   152   165   163   ar
   153    26    24   ar
   154   163   162   ar
   155   160   162   ar
   156    21    20    1
   157    21    22   ar
   158    20    17    1
   159    16    17    1
   160    24    22   ar
   161    19    18    2
   162    17    18    1
   163    18    28   am
   164    39    38    1
   165     6     5    1
   166    38    40    1
   167    38    35    1
   168     7     5    1
   169    28    29    1
   170     5     2    1
   171    34    30   am
   172    34    35    1
   173    29    30    1
   174    29    32    1
   175    30    31    2
   176    35    36    1
   177     2     3    1
   178     2     1    1
   179    36    37    2
   180    32    33    1
   181     3     4    2
