@<TRIPOS>MOLECULE
tmp/2hkdA00.pdb
 92 82 0 0 0
SMALL
GASTEIGER

@<TRIPOS>ATOM
      1  N         17.6600   14.6240    6.7980 N.3   158  ARG158     -0.1245
      2  CA        18.6930   14.1070    5.9040 C.3   158  ARG158      0.1563
      3  C         19.8340   13.4680    6.6850 C.2   158  ARG158      0.2260
      4  O         19.9600   13.6360    7.9120 O.2   158  ARG158     -0.2867
      5  CB        19.2080   15.2240    4.9930 C.3   158  ARG158      0.0307
      6  CG        18.1430   15.7260    4.0350 C.3   158  ARG158      0.0489
      7  CD        18.4460   17.0870    3.4530 C.3   158  ARG158      0.2205
      8  NE        17.8010   18.1910    4.2010 N.pl3 158  ARG158     -0.0865
      9  CZ        16.4960   18.4630    4.2060 C.cat 158  ARG158      0.5346
     10  NH1       15.6090   17.7240    3.5450 N.pl3 158  ARG158      0.1354
     11  NH2       16.0610   19.4960    4.9000 N.pl3 158  ARG158      0.1354
     12  N         13.5410   19.3710    7.2240 N.3   164  THR164     -0.1218
     13  CA        12.4120   20.2630    6.9150 C.3   164  THR164      0.1862
     14  C         11.2090   19.7120    7.6510 C.2   164  THR164      0.2287
     15  O         10.9040   18.5310    7.5080 O.2   164  THR164     -0.2866
     16  CB        12.1050   20.3070    5.3940 C.3   164  THR164      0.1770
     17  OG1       13.2840   20.7050    4.6820 O.3   164  THR164     -0.2211
     18  CG2       11.0090   21.2730    5.0990 C.3   164  THR164      0.0375
     19  N          7.1180   20.3590    8.4450 N.3   166  GLU166     -0.1245
     20  CA         5.9470   21.0910    8.0080 C.3   166  GLU166      0.1567
     21  C          4.7700   20.6890    8.8840 C.2   166  GLU166      0.2260
     22  O          4.6710   19.5400    9.3430 O.2   166  GLU166     -0.2867
     23  CB         5.6370   20.8330    6.5350 C.3   166  GLU166      0.0388
     24  CG         6.7530   21.2470    5.5780 C.3   166  GLU166      0.1160
     25  CD         6.4670   20.8110    4.1420 C.2   166  GLU166      0.3649
     26  OE1        6.6280   21.6480    3.2270 O.co2 166  GLU166     -0.2457
     27  OE2        6.0710   19.6420    3.9330 O.co2 166  GLU166     -0.2457
     28  N          0.4450   24.0500    3.7700 N.3   174  VAL174     -0.1245
     29  CA         1.5020   24.1920    4.7450 C.3   174  VAL174      0.1561
     30  C          1.2900   25.5190    5.4760 C.2   174  VAL174      0.2260
     31  O          1.2780   26.6000    4.8810 O.2   174  VAL174     -0.2867
     32  CB         2.8800   24.1480    4.0780 C.3   174  VAL174      0.0252
     33  CG1        3.9530   24.2890    5.1300 C.3   174  VAL174      0.0019
     34  CG2        3.0630   22.8530    3.3350 C.3   174  VAL174      0.0019
     35  N          6.6120   25.9620    8.7140 N.3   177  LYS177     -0.1245
     36  CA         7.7090   25.1940    8.1260 C.3   177  LYS177      0.1561
     37  C          8.9840   25.5600    8.8530 C.2   177  LYS177      0.2260
     38  O          9.2690   26.7390    8.9940 O.2   177  LYS177     -0.2867
     39  CB         7.8640   25.5240    6.6530 C.3   177  LYS177      0.0271
     40  CG         8.9420   24.7700    5.9270 C.3   177  LYS177      0.0035
     41  CD         8.9360   25.2150    4.4820 C.3   177  LYS177      0.0206
     42  CE         9.5130   24.2270    3.5560 C.3   177  LYS177      0.1093
     43  NZ         9.2600   24.7570    2.1460 N.3   177  LYS177     -0.1314
     44  N         13.0650   24.9530    8.7240 N.3   179  ILE179     -0.1245
     45  CA        14.2340   24.4330    7.9900 C.3   179  ILE179      0.1561
     46  C         15.4040   24.4630    8.9650 C.2   179  ILE179      0.2260
     47  O         15.8300   25.5330    9.4090 O.2   179  ILE179     -0.2867
     48  CB        14.5840   25.3240    6.7910 C.3   179  ILE179      0.0252
     49  CG1       13.4100   25.4150    5.8070 C.3   179  ILE179      0.0019
     50  CG2       15.8580   24.8140    6.1120 C.3   179  ILE179      0.0019
     51  CD1       13.6670   26.4070    4.6920 C.3   179  ILE179      0.0001
     52  N          9.2870   29.4830    9.7860 N.3   189  TYR189     -0.1241
     53  CA         8.2320   30.1500    9.0460 C.3   189  TYR189      0.1605
     54  C          6.8770   29.8520    9.7040 C.2   189  TYR189      0.2264
     55  O          6.5250   28.6830    9.9470 O.2   189  TYR189     -0.2867
     56  CB         8.2520   29.7200    7.5980 C.3   189  TYR189      0.0534
     57  CG         9.5470   29.9900    6.8550 C.ar  189  TYR189     -0.0201
     58  CD1       10.3410   28.9510    6.3990 C.ar  189  TYR189     -0.0009
     59  CD2        9.9700   31.2750    6.6050 C.ar  189  TYR189     -0.0009
     60  CE1       11.4900   29.1940    5.6930 C.ar  189  TYR189      0.0417
     61  CE2       11.1230   31.5450    5.9200 C.ar  189  TYR189      0.0417
     62  CZ        11.8990   30.4930    5.4540 C.ar  189  TYR189      0.1957
     63  OH        13.0370   30.7300    4.7220 O.3   189  TYR189     -0.2866
     64  N          1.8510   30.9800    7.5820 N.3   192  ILE192     -0.1245
     65  CA         2.0360   30.9180    6.1210 C.3   192  ILE192      0.1561
     66  C          0.6920   31.0280    5.4630 C.2   192  ILE192      0.2260
     67  O         -0.2400   30.2700    5.7810 O.2   192  ILE192     -0.2867
     68  CB         2.7810   29.6310    5.7030 C.3   192  ILE192      0.0252
     69  CG1        4.1630   29.6270    6.3660 C.3   192  ILE192      0.0019
     70  CG2        2.9250   29.5240    4.1830 C.3   192  ILE192      0.0019
     71  CD1        4.9990   28.3710    6.1610 C.3   192  ILE192      0.0001
     72  N          1.9470   31.4750   -0.0790 N.3   196  GLY196     -0.1225
     73  CA         3.2970   31.1130    0.3180 C.3   196  GLY196      0.1811
     74  C          4.0570   32.1920    1.0650 C.2   196  GLY196      0.2280
     75  O          5.2720   32.0470    1.2880 O.2   196  GLY196     -0.2866
     76  N          8.7210   36.1020    4.8480 N.3   213  LEU213     -0.1245
     77  CA         8.7540   35.1230    3.7690 C.3   213  LEU213      0.1561
     78  C          7.8250   35.5830    2.6500 C.2   213  LEU213      0.2260
     79  O          6.7020   35.9440    2.9010 O.2   213  LEU213     -0.2867
     80  CB         8.2600   33.7700    4.3010 C.3   213  LEU213      0.0270
     81  CG         8.0210   32.6770    3.2490 C.3   213  LEU213      0.0019
     82  CD1        9.2840   32.0840    2.7150 C.3   213  LEU213      0.0001
     83  CD2        7.1700   31.5300    3.8420 C.3   213  LEU213      0.0001
     84  N         15.3270   30.5390   -2.2780 N.3   235  LYS235     -0.1245
     85  CA        14.6960   29.2320   -1.9690 C.3   235  LYS235      0.1561
     86  C         15.7140   28.1370   -1.7340 C.2   235  LYS235      0.2260
     87  O         15.4670   27.1790   -0.9640 O.2   235  LYS235     -0.2867
     88  CB        13.7810   28.8000   -3.1070 C.3   235  LYS235      0.0271
     89  CG        12.6100   29.7300   -3.2810 C.3   235  LYS235      0.0035
     90  CD        11.4330   29.1150   -3.9980 C.3   235  LYS235      0.0206
     91  CE        11.7160   28.8920   -5.4600 C.3   235  LYS235      0.1093
     92  NZ        10.4380   28.6620   -6.2150 N.3   235  LYS235     -0.1314
@<TRIPOS>BOND
     1    92    91    1
     2    91    90    1
     3    90    89    1
     4    89    88    1
     5    88    85    1
     6    84    85    1
     7    85    86    1
     8    86    87    2
     9    72    73    1
    10    73    74    1
    11    74    75    2
    12    43    42    1
    13    78    79    2
    14    78    77    1
    15    82    81    1
    16    26    25   ar
    17    81    83    1
    18    81    80    1
    19    34    32    1
    20     7     6    1
    21     7     8    1
    22    10     9    1
    23    42    41    1
    24    77    80    1
    25    77    76    1
    26    28    29    1
    27    27    25   ar
    28     6     5    1
    29    32    29    1
    30    32    33    1
    31    25    24    1
    32    70    68    1
    33     8     9    2
    34     9    11    1
    35    41    40    1
    36    17    16    1
    37    51    49    1
    38    63    62    1
    39    29    30    1
    40    31    30    2
    41     5     2    1
    42    18    16    1
    43    16    13    1
    44    62    60   ar
    45    62    61   ar
    46    66    67    2
    47    66    65    1
    48    24    23    1
    49    60    58   ar
    50    68    65    1
    51    68    69    1
    52    49    48    1
    53     2     3    1
    54     2     1    1
    55    61    59   ar
    56    40    39    1
    57    50    48    1
    58    65    64    1
    59    71    69    1
    60    58    57   ar
    61    23    20    1
    62    59    57   ar
    63    39    36    1
    64     3     4    2
    65    48    45    1
    66    57    56    1
    67    13    12    1
    68    13    14    1
    69    15    14    2
    70    56    53    1
    71    45    44    1
    72    45    46    1
    73    20    19    1
    74    20    21    1
    75    36    35    1
    76    36    37    1
    77    37    38    2
    78    21    22    2
    79    46    47    2
    80    53    54    1
    81    53    52    1
    82    54    55    2
