@<TRIPOS>MOLECULE
tmp/2hkfB00.pdb
 157 154 0 0 0
SMALL
GASTEIGER

@<TRIPOS>ATOM
      1  N          6.5340   30.2140   -7.0140 N.3     2  VAL2       -0.1245
      2  CA         5.3220   30.1480   -6.2070 C.3     2  VAL2        0.1561
      3  C          5.5350   29.2540   -4.9770 C.2     2  VAL2        0.2260
      4  O          6.0450   28.1310   -5.0820 O.2     2  VAL2       -0.2867
      5  CB         4.0210   29.8500   -7.0480 C.3     2  VAL2        0.0252
      6  CG1        4.3440   29.2980   -8.4270 C.3     2  VAL2        0.0019
      7  CG2        3.0040   28.9820   -6.2840 C.3     2  VAL2        0.0019
      8  N          4.1570   34.4670   -4.2890 N.3    26  GLY26      -0.1210
      9  CA         4.8980   34.4750   -5.5700 C.3    26  GLY26       0.1956
     10  C          4.0540   34.0300   -6.7650 C.2    26  GLY26       0.2613
     11  O          4.5550   33.4110   -7.7180 O.2    26  GLY26      -0.2717
     12  N          2.7620   34.3390   -6.7000 N.am   27  SER27      -0.1938
     13  CA         1.8140   33.9770   -7.7420 C.3    27  SER27       0.2055
     14  C          1.2860   35.2180   -8.4390 C.2    27  SER27       0.2643
     15  O          1.3100   36.3230   -7.8800 O.2    27  SER27      -0.2714
     16  CB         0.6560   33.1670   -7.1520 C.3    27  SER27       0.2130
     17  OG         0.1110   33.8240   -6.0180 O.3    27  SER27      -0.2179
     18  N          0.8140   35.0200   -9.6680 N.am   28  THR28      -0.1950
     19  CA         0.2910   36.1040  -10.4980 C.3    28  THR28       0.1897
     20  C         -1.2210   35.9370  -10.5210 C.2    28  THR28       0.2313
     21  O         -1.7350   34.9340  -11.0380 O.2    28  THR28      -0.2863
     22  CB         0.8940   36.0580  -11.9230 C.3    28  THR28       0.1794
     23  OG1        2.3180   36.1830  -11.8320 O.3    28  THR28      -0.2208
     24  CG2        0.3530   37.1870  -12.7940 C.3    28  THR28       0.0378
     25  N         -6.0780   33.3010  -10.9040 N.3    31  ASN31      -0.1225
     26  CA        -6.6710   32.6170  -12.0420 C.3    31  ASN31       0.1785
     27  C         -6.2160   31.1600  -12.2000 C.2    31  ASN31       0.2597
     28  O         -5.8190   30.7620  -13.2800 O.2    31  ASN31      -0.2718
     29  CB        -6.3330   33.4010  -13.3270 C.3    31  ASN31       0.1169
     30  CG        -4.8100   33.4720  -13.6070 C.2    31  ASN31       0.2627
     31  OD1       -3.9840   33.0430  -12.7940 O.2    31  ASN31      -0.2716
     32  ND2       -4.4500   33.9970  -14.7740 N.am   31  ASN31      -0.0877
     33  N         -6.2580   30.3910  -11.1180 N.am   32  TYR32      -0.1962
     34  CA        -5.8310   28.9840  -11.0930 C.3    32  TYR32       0.1771
     35  C         -6.6620   28.2300  -10.0580 C.2    32  TYR32       0.2619
     36  O         -7.2070   28.8380   -9.1310 O.2    32  TYR32      -0.2715
     37  CB        -4.3450   28.8500  -10.7140 C.3    32  TYR32       0.0574
     38  CG        -3.9530   29.6550   -9.4860 C.ar   32  TYR32      -0.0198
     39  CD1       -3.4790   30.9580   -9.6100 C.ar   32  TYR32      -0.0009
     40  CD2       -4.0680   29.1140   -8.2020 C.ar   32  TYR32      -0.0009
     41  CE1       -3.1200   31.7040   -8.4810 C.ar   32  TYR32       0.0417
     42  CE2       -3.7220   29.8300   -7.0900 C.ar   32  TYR32       0.0417
     43  CZ        -3.2410   31.1320   -7.2360 C.ar   32  TYR32       0.1957
     44  OH        -2.9060   31.8530   -6.1240 O.3    32  TYR32      -0.2866
     45  N         -6.7330   26.9080  -10.1920 N.am   33  ALA33      -0.1977
     46  CA        -7.4700   26.1080   -9.2260 C.3    33  ALA33       0.1597
     47  C         -6.5480   25.7470   -8.0690 C.2    33  ALA33       0.2287
     48  O         -5.3320   25.7490   -8.2210 O.2    33  ALA33      -0.2864
     49  CB        -8.0270   24.8580   -9.8690 C.3    33  ALA33       0.0319
     50  N        -11.2940   20.4550   -4.4610 N.3    50  ARG50      -0.1245
     51  CA       -10.8360   21.2940   -5.5560 C.3    50  ARG50       0.1563
     52  C        -11.7200   22.5380   -5.5830 C.2    50  ARG50       0.2260
     53  O        -12.9380   22.4250   -5.4830 O.2    50  ARG50      -0.2867
     54  CB       -11.0310   20.5420   -6.8790 C.3    50  ARG50       0.0307
     55  CG       -10.6470   21.3060   -8.1740 C.3    50  ARG50       0.0489
     56  CD       -11.3930   20.6460   -9.3360 C.3    50  ARG50       0.2205
     57  NE       -11.0450   21.1290  -10.6730 N.pl3  50  ARG50      -0.0865
     58  CZ       -11.7040   20.7930  -11.7870 C.cat  50  ARG50       0.5346
     59  NH1      -12.7790   19.9870  -11.7410 N.pl3  50  ARG50       0.1354
     60  NH2      -11.3140   21.2740  -12.9600 N.pl3  50  ARG50       0.1354
     61  N        -12.1340   25.9160   -8.1240 N.3    52  ARG52      -0.1231
     62  CA       -11.6630   26.5190   -9.3500 C.3    52  ARG52       0.1694
     63  C        -11.5910   28.0390   -9.1960 C.2    52  ARG52       0.2592
     64  O        -11.9960   28.5990   -8.1630 O.2    52  ARG52      -0.2718
     65  CB       -12.5680   26.0810  -10.5010 C.3    52  ARG52       0.0321
     66  CG       -12.7460   24.5590  -10.5900 C.3    52  ARG52       0.0489
     67  CD       -13.3460   24.1530  -11.9140 C.3    52  ARG52       0.2205
     68  NE       -12.3990   24.3260  -13.0060 N.pl3  52  ARG52      -0.0865
     69  CZ       -12.6600   24.0560  -14.2820 C.cat  52  ARG52       0.5346
     70  NH1      -13.8630   23.6140  -14.6510 N.pl3  52  ARG52       0.1354
     71  NH2      -11.7180   24.2500  -15.1950 N.pl3  52  ARG52       0.1354
     72  N        -11.0480   28.6880  -10.2170 N.am   53  SER53      -0.1952
     73  CA       -10.9050   30.1430  -10.2760 C.3    53  SER53       0.1924
     74  C        -12.2480   30.8570  -10.3970 C.2    53  SER53       0.2314
     75  O        -13.2760   30.2570  -10.7590 O.2    53  SER53      -0.2863
     76  CB       -10.0410   30.5250  -11.4900 C.3    53  SER53       0.2116
     77  OG       -10.8010   30.4050  -12.6860 O.3    53  SER53      -0.2180
     78  N        -14.0560   30.3580  -13.5550 N.3    56  ASN56      -0.1240
     79  CA       -14.7500   29.0770  -13.5660 C.3    56  ASN56       0.1653
     80  C        -15.7670   28.9870  -12.4240 C.2    56  ASN56       0.2266
     81  O        -16.0990   27.8840  -11.9450 O.2    56  ASN56      -0.2867
     82  CB       -13.7260   27.9340  -13.4910 C.3    56  ASN56       0.1155
     83  CG       -13.0060   27.7150  -14.8070 C.2    56  ASN56       0.2627
     84  OD1      -13.6240   27.3850  -15.8130 O.2    56  ASN56      -0.2716
     85  ND2      -11.6870   27.9030  -14.8080 N.am   56  ASN56      -0.0877
     86  N        -15.4610   20.8140   -5.8060 N.3    61  TYR61      -0.1241
     87  CA       -15.5640   19.3900   -6.0220 C.3    61  TYR61       0.1605
     88  C        -14.9080   18.7070   -4.8320 C.2    61  TYR61       0.2264
     89  O        -13.9440   19.2220   -4.2720 O.2    61  TYR61      -0.2867
     90  CB       -14.8070   19.0070   -7.2960 C.3    61  TYR61       0.0534
     91  CG       -15.3450   19.6980   -8.5130 C.ar   61  TYR61      -0.0201
     92  CD1      -14.8280   20.9250   -8.9300 C.ar   61  TYR61      -0.0009
     93  CD2      -16.4010   19.1480   -9.2270 C.ar   61  TYR61      -0.0009
     94  CE1      -15.3450   21.5780  -10.0400 C.ar   61  TYR61       0.0417
     95  CE2      -16.9190   19.7900  -10.3430 C.ar   61  TYR61       0.0417
     96  CZ       -16.3740   20.9900  -10.7460 C.ar   61  TYR61       0.1957
     97  OH       -16.8980   21.6210  -11.8390 O.3    61  TYR61      -0.2866
     98  N         -1.3790   23.5200   -5.8750 N.3   100  THR100     -0.1203
     99  CA        -1.8350   24.3420   -6.9920 C.3   100  THR100      0.1994
    100  C         -2.1890   23.4970   -8.2040 C.2   100  THR100      0.2618
    101  O         -1.6620   22.4110   -8.4040 O.2   100  THR100     -0.2717
    102  CB        -0.7450   25.3280   -7.4820 C.3   100  THR100      0.1784
    103  OG1        0.3760   24.5740   -7.9350 O.3   100  THR100     -0.2211
    104  CG2       -0.3130   26.3190   -6.4030 C.3   100  THR100      0.0376
    105  N         -3.1030   24.0060   -9.0140 N.am  101  TYR101     -0.1961
    106  CA        -3.3740   23.4170  -10.3000 C.3   101  TYR101      0.1771
    107  C         -3.6250   24.5520  -11.2660 C.2   101  TYR101      0.2620
    108  O         -4.7660   24.9630  -11.5000 O.2   101  TYR101     -0.2715
    109  CB        -4.5660   22.4530  -10.2330 C.3   101  TYR101      0.0574
    110  CG        -4.6050   21.4590  -11.3650 C.ar  101  TYR101     -0.0198
    111  CD1       -4.8650   20.1160  -11.1200 C.ar  101  TYR101     -0.0009
    112  CD2       -4.3660   21.8600  -12.6890 C.ar  101  TYR101     -0.0009
    113  CE1       -4.9140   19.1980  -12.1560 C.ar  101  TYR101      0.0417
    114  CE2       -4.4020   20.9440  -13.7350 C.ar  101  TYR101      0.0417
    115  CZ        -4.6910   19.6120  -13.4620 C.ar  101  TYR101      0.1957
    116  OH        -4.7200   18.6840  -14.4860 O.3   101  TYR101     -0.2866
    117  N         -2.5240   25.0880  -11.7850 N.am  102  GLY102     -0.1940
    118  CA        -2.5620   26.0930  -12.8290 C.3   102  GLY102      0.2014
    119  C         -2.2420   25.4100  -14.1430 C.2   102  GLY102      0.2639
    120  O         -2.9100   24.4260  -14.5130 O.2   102  GLY102     -0.2714
    121  N         -1.2190   25.9220  -14.8400 N.am  103  ASN103     -0.1958
    122  CA        -0.7490   25.3140  -16.0830 C.3   103  ASN103      0.1819
    123  C         -0.3320   23.8540  -15.8760 C.2   103  ASN103      0.2621
    124  O         -0.5040   23.0170  -16.7620 O.2   103  ASN103     -0.2715
    125  CB         0.4570   26.0670  -16.6480 C.3   103  ASN103      0.1195
    126  CG         0.1060   27.4330  -17.2030 C.2   103  ASN103      0.2630
    127  OD1        0.9910   28.2700  -17.3470 O.2   103  ASN103     -0.2716
    128  ND2       -1.1760   27.6670  -17.5280 N.am  103  ASN103     -0.0877
    129  N          0.2470   23.5580  -14.7180 N.am  104  HIS104     -0.1960
    130  CA         0.7410   22.2020  -14.4520 C.3   104  HIS104      0.1772
    131  C          0.0160   21.5150  -13.2960 C.2   104  HIS104      0.2462
    132  O         -0.2050   22.1260  -12.2550 O.2   104  HIS104     -0.2730
    133  CB         2.2590   22.2170  -14.2820 C.3   104  HIS104      0.0785
    134  CG         2.9640   22.8940  -15.4170 C.ar  104  HIS104      0.0821
    135  ND1        3.6410   24.0860  -15.2730 N.ar  104  HIS104     -0.2267
    136  CD2        3.0120   22.5950  -16.7380 C.ar  104  HIS104      0.1154
    137  CE1        4.1180   24.4650  -16.4480 C.ar  104  HIS104      0.1986
    138  NE2        3.7460   23.5800  -17.3540 N.ar  104  HIS104     -0.2212
    139  N         -0.3580   20.2300  -13.4830 N.am  105  PRO105     -0.2727
    140  CA        -1.1760   19.5120  -12.4970 C.3   105  PRO105      0.1402
    141  C         -0.4430   19.3470  -11.1950 C.2   105  PRO105      0.2269
    142  O          0.7060   18.8880  -11.1920 O.2   105  PRO105     -0.2865
    143  CB        -1.3550   18.1220  -13.1280 C.3   105  PRO105      0.0296
    144  CG        -0.1380   17.9590  -14.0470 C.3   105  PRO105      0.0237
    145  CD         0.0050   19.3670  -14.6260 C.3   105  PRO105      0.0939
    146  N          2.7690   22.6280   -7.3450 N.3   108  TYR108     -0.1241
    147  CA         3.3940   23.2670   -6.1860 C.3   108  TYR108      0.1605
    148  C          2.6670   22.8970   -4.8970 C.2   108  TYR108      0.2264
    149  O          1.5010   23.2030   -4.7200 O.2   108  TYR108     -0.2867
    150  CB         3.4980   24.7950   -6.3890 C.3   108  TYR108      0.0534
    151  CG         4.1500   25.1930   -7.7240 C.ar  108  TYR108     -0.0201
    152  CD1        5.5270   25.1040   -7.9060 C.ar  108  TYR108     -0.0009
    153  CD2        3.3720   25.6460   -8.8010 C.ar  108  TYR108     -0.0009
    154  CE1        6.1210   25.4450   -9.1310 C.ar  108  TYR108      0.0417
    155  CE2        3.9500   25.9870  -10.0200 C.ar  108  TYR108      0.0417
    156  CZ         5.3230   25.8870  -10.1780 C.ar  108  TYR108      0.1957
    157  OH         5.9210   26.2270  -11.3700 O.3   108  TYR108     -0.2866
@<TRIPOS>BOND
     1   128   126   am
     2   138   136   ar
     3   138   137   ar
     4   127   126    2
     5   126   125    1
     6   124   123    2
     7   136   134   ar
     8   125   122    1
     9   137   135   ar
    10   122   123    1
    11   122   121    1
    12   123   129   am
    13    84    83    2
    14   134   135   ar
    15   134   133    1
    16    71    69    1
    17   121   119   am
    18    85    83   am
    19    83    82    1
    20    32    30   am
    21   129   130    1
    22    70    69    1
    23   145   144    1
    24   145   139    1
    25   120   119    2
    26   116   115    1
    27   130   133    1
    28   130   131    1
    29    69    68    2
    30   119   118    1
    31   144   143    1
    32   114   115   ar
    33   114   112   ar
    34    30    29    1
    35    30    31    2
    36    79    78    1
    37    79    82    1
    38    79    80    1
    39   139   131   am
    40   139   140    1
    41   115   113   ar
    42    29    26    1
    43   131   132    2
    44    28    27    2
    45   143   140    1
    46    68    67    1
    47    60    58    1
    48   118   117    1
    49    24    22    1
    50   112   110   ar
    51    77    76    1
    52   140   141    1
    53    80    81    2
    54    27    26    1
    55    27    33   am
    56   113   111   ar
    57    26    25    1
    58    22    23    1
    59    22    19    1
    60    67    66    1
    61    97    96    1
    62    58    59    1
    63    58    57    2
    64   117   107   am
    65   108   107    2
    66    76    73    1
    67   157   156    1
    68   110   111   ar
    69   110   109    1
    70   107   106    1
    71   141   142    2
    72    33    34    1
    73    34    37    1
    74    34    35    1
    75    21    20    2
    76    75    74    2
    77    96    95   ar
    78    96    94   ar
    79    37    38    1
    80    57    56    1
    81    66    65    1
    82    20    19    1
    83    65    62    1
    84    19    18    1
    85    74    73    1
    86    95    93   ar
    87   106   109    1
    88   106   105    1
    89    73    72    1
    90    72    63   am
    91    45    35   am
    92    45    46    1
    93   156   155   ar
    94   156   154   ar
    95    35    36    2
    96    94    92   ar
    97   155   153   ar
    98    49    46    1
    99    18    14   am
   100    39    38   ar
   101    39    41   ar
   102    38    40   ar
   103    62    63    1
   104    62    61    1
   105    56    55    1
   106    93    91   ar
   107    46    47    1
   108    63    64    2
   109   154   152   ar
   110   105   100   am
   111    92    91   ar
   112   153   151   ar
   113    91    90    1
   114    41    43   ar
   115    14    15    2
   116    14    13    1
   117     6     5    1
   118   101   100    2
   119    48    47    2
   120   100    99    1
   121    40    42   ar
   122    55    54    1
   123   103   102    1
   124   152   151   ar
   125    13    16    1
   126    13    12    1
   127   151   150    1
   128    11    10    2
   129   102    99    1
   130   102   104    1
   131   146   147    1
   132    90    87    1
   133    43    42   ar
   134    43    44    1
   135    16    17    1
   136     5     7    1
   137     5     2    1
   138     1     2    1
   139    99    98    1
   140    54    51    1
   141    10    12   am
   142    10     9    1
   143   150   147    1
   144     2     3    1
   145   147   148    1
   146    87    86    1
   147    87    88    1
   148    52    51    1
   149    52    53    2
   150     9     8    1
   151    51    50    1
   152     4     3    2
   153   148   149    2
   154    88    89    2
