@<TRIPOS>MOLECULE
tmp/2hkkA00.pdb
 116 113 0 0 0
SMALL
GASTEIGER

@<TRIPOS>ATOM
      1  N          8.2420   -0.3550   10.3750 N.3     2  TRP2       -0.1241
      2  CA         7.5770   -1.3330   11.2360 C.3     2  TRP2        0.1605
      3  C          6.6000   -2.2010   10.4470 C.2     2  TRP2        0.2264
      4  O          6.0340   -1.7650    9.4450 O.2     2  TRP2       -0.2867
      5  CB         6.8650   -0.6330   12.4020 C.3     2  TRP2        0.0550
      6  CG         5.6290    0.1350   12.0150 C.ar    2  TRP2        0.0003
      7  CD1        5.5540    1.4540   11.6570 C.ar    2  TRP2        0.0946
      8  CD2        4.2840   -0.3690   11.9760 C.ar    2  TRP2        0.0152
      9  NE1        4.2520    1.7960   11.3900 N.ar    2  TRP2       -0.2442
     10  CE2        3.4520    0.6970   11.5790 C.ar    2  TRP2        0.0810
     11  CE3        3.7060   -1.6240   12.2340 C.ar    2  TRP2        0.0012
     12  CZ2        2.0690    0.5550   11.4360 C.ar    2  TRP2        0.0191
     13  CZ3        2.3260   -1.7650   12.0890 C.ar    2  TRP2        0.0001
     14  CH2        1.5270   -0.6810   11.6910 C.ar    2  TRP2        0.0015
     15  N         -8.8370    2.1800    2.0230 N.3    57  LEU57      -0.1245
     16  CA        -7.4070    2.2600    1.7260 C.3    57  LEU57       0.1561
     17  C         -6.6280    1.0880    2.3190 C.2    57  LEU57       0.2260
     18  O         -6.7620    0.7950    3.5110 O.2    57  LEU57      -0.2867
     19  CB        -6.8230    3.5750    2.2710 C.3    57  LEU57       0.0270
     20  CG        -5.2860    3.6780    2.3810 C.3    57  LEU57       0.0019
     21  CD1       -4.6410    3.9110    1.0160 C.3    57  LEU57       0.0001
     22  CD2       -4.8410    4.7430    3.3710 C.3    57  LEU57       0.0001
     23  N         -3.1680    0.3720    3.5610 N.3    59  ASN59      -0.1240
     24  CA        -2.0440    1.2010    4.0180 C.3    59  ASN59       0.1653
     25  C         -0.7870    0.3810    4.2850 C.2    59  ASN59       0.2266
     26  O          0.1510    0.8600    4.9250 O.2    59  ASN59      -0.2867
     27  CB        -2.4360    2.0220    5.2560 C.3    59  ASN59       0.1155
     28  CG        -2.8850    1.1520    6.4330 C.2    59  ASN59       0.2627
     29  OD1       -2.5110   -0.0140    6.5470 O.2    59  ASN59      -0.2716
     30  ND2       -3.6900    1.7360    7.3200 N.am   59  ASN59      -0.0877
     31  N         -0.5540   -2.2970    6.1680 N.3    61  HIS61      -0.1241
     32  CA        -0.6540   -3.0010    7.4590 C.3    61  HIS61       0.1621
     33  C         -2.0600   -3.5710    7.6870 C.2    61  HIS61       0.2264
     34  O         -2.2360   -4.6100    8.3250 O.2    61  HIS61      -0.2867
     35  CB        -0.3000   -2.0540    8.6130 C.3    61  HIS61       0.0745
     36  CG         0.9390   -1.2480    8.3750 C.ar   61  HIS61       0.0817
     37  ND1        2.2060   -1.7600    8.5580 N.ar   61  HIS61      -0.2268
     38  CD2        1.1050    0.0310    7.9570 C.ar   61  HIS61       0.1154
     39  CE1        3.0990   -0.8250    8.2780 C.ar   61  HIS61       0.1986
     40  NE2        2.4560    0.2680    7.9050 N.ar   61  HIS61      -0.2212
     41  N         -8.2390    0.5690    5.9230 N.3    64  ASN64      -0.1240
     42  CA        -9.0660    1.5390    6.6370 C.3    64  ASN64       0.1653
     43  C        -10.2750    1.9560    5.8150 C.2    64  ASN64       0.2266
     44  O        -10.1270    2.3680    4.6600 O.2    64  ASN64      -0.2867
     45  CB        -8.2690    2.8170    6.9290 C.3    64  ASN64       0.1155
     46  CG        -7.2020    2.6400    7.9890 C.2    64  ASN64       0.2627
     47  OD1       -6.4190    3.5660    8.2310 O.2    64  ASN64      -0.2716
     48  ND2       -7.1450    1.4740    8.6130 N.am   64  ASN64      -0.0877
     49  N        -12.5970    4.9230    5.7290 N.3    66  GLU66      -0.1245
     50  CA       -12.5250    6.2760    6.2530 C.3    66  GLU66       0.1567
     51  C        -13.8720    6.9600    6.1510 C.2    66  GLU66       0.2260
     52  O        -14.6590    6.6790    5.2450 O.2    66  GLU66      -0.2867
     53  CB       -11.4820    7.0870    5.4900 C.3    66  GLU66       0.0388
     54  CG       -10.1140    6.4290    5.3990 C.3    66  GLU66       0.1160
     55  CD        -9.3290    6.9020    4.1930 C.2    66  GLU66       0.3649
     56  OE1       -9.8520    7.7550    3.4500 O.co2  66  GLU66      -0.2457
     57  OE2       -8.2020    6.4210    3.9720 O.co2  66  GLU66      -0.2457
     58  N        -13.8390    8.3230   12.8030 N.3    88  ILE88      -0.1231
     59  CA       -12.9450    8.7350   11.7120 C.3    88  ILE88       0.1692
     60  C        -12.6190    7.5950   10.7440 C.2    88  ILE88       0.2591
     61  O        -12.5650    7.8040    9.5400 O.2    88  ILE88      -0.2718
     62  CB       -11.6510    9.4880   12.2110 C.3    88  ILE88       0.0266
     63  CG1      -10.7290    9.8390   11.0240 C.3    88  ILE88       0.0019
     64  CG2      -10.9200    8.7080   13.3070 C.3    88  ILE88       0.0020
     65  CD1       -9.6690   10.8940   11.3470 C.3    88  ILE88       0.0001
     66  N        -12.4270    6.3860   11.2700 N.am   89  GLN89      -0.1979
     67  CA       -12.1450    5.2210   10.4270 C.3    89  GLN89       0.1601
     68  C        -12.4210    3.9300   11.1710 C.2    89  GLN89       0.2287
     69  O        -12.5160    3.9280   12.3920 O.2    89  GLN89      -0.2864
     70  CB       -10.6950    5.2150    9.9050 C.3    89  GLN89       0.0394
     71  CG        -9.6050    5.3630   10.9700 C.3    89  GLN89       0.0908
     72  CD        -8.9380    4.0550   11.3830 C.2    89  GLN89       0.2608
     73  OE1       -9.5030    2.9700   11.2560 O.2    89  GLN89      -0.2717
     74  NE2       -7.7320    4.1660   11.9190 N.am   89  GLN89      -0.0878
     75  N        -11.0140   -0.3830   10.9090 N.3    91  HIS91      -0.1241
     76  CA       -10.1200   -1.3450   10.3010 C.3    91  HIS91       0.1621
     77  C        -10.2300   -2.6210   11.1110 C.2    91  HIS91       0.2264
     78  O        -10.8830   -2.6440   12.1570 O.2    91  HIS91      -0.2867
     79  CB        -8.6750   -0.8420   10.3330 C.3    91  HIS91       0.0745
     80  CG        -8.1650   -0.5820   11.7120 C.ar   91  HIS91       0.0817
     81  ND1       -8.3440    0.6240   12.3530 N.ar   91  HIS91      -0.2268
     82  CD2       -7.4990   -1.3780   12.5830 C.ar   91  HIS91       0.1154
     83  CE1       -7.8030    0.5630   13.5570 C.ar   91  HIS91       0.1986
     84  NE2       -7.2950   -0.6460   13.7260 N.ar   91  HIS91      -0.2212
     85  N         -8.3630   15.0810   14.8450 N.3   127  PHE127     -0.1241
     86  CA        -7.6950   13.8340   15.2270 C.3   127  PHE127      0.1605
     87  C         -6.2600   14.0990   15.6670 C.2   127  PHE127      0.2264
     88  O         -5.8180   13.5990   16.7070 O.2   127  PHE127     -0.2867
     89  CB        -7.7190   12.8390   14.0570 C.3   127  PHE127      0.0534
     90  CG        -7.0560   11.5240   14.3580 C.ar  127  PHE127     -0.0203
     91  CD1       -5.7280   11.3050   14.0240 C.ar  127  PHE127     -0.0042
     92  CD2       -7.7720   10.4960   14.9570 C.ar  127  PHE127     -0.0042
     93  CE1       -5.1120   10.0800   14.2900 C.ar  127  PHE127     -0.0003
     94  CE2       -7.1660    9.2660   15.2320 C.ar  127  PHE127     -0.0003
     95  CZ        -5.8300    9.0610   14.8930 C.ar  127  PHE127     -0.0000
     96  N         -0.9810    0.0890   16.9530 N.3   196  THR196     -0.1204
     97  CA         0.0190    0.2200   15.9020 C.3   196  THR196      0.1979
     98  C          0.9040    1.4110   16.2010 C.2   196  THR196      0.2460
     99  O          0.4360    2.4020   16.7800 O.2   196  THR196     -0.2732
    100  CB        -0.6340    0.4680   14.5440 C.3   196  THR196      0.1783
    101  OG1       -1.5650    1.5550   14.6660 O.3   196  THR196     -0.2211
    102  CG2       -1.3590   -0.7780   14.0690 C.3   196  THR196      0.0376
    103  N          2.1910    1.3220   15.8200 N.am  197  PRO197     -0.2718
    104  CA         3.0320    2.4960   15.9500 C.3   197  PRO197      0.1520
    105  C          2.3300    3.7170   15.3880 C.2   197  PRO197      0.2440
    106  O          1.7180    3.6550   14.3070 O.2   197  PRO197     -0.2731
    107  CB         4.2570    2.1280   15.1160 C.3   197  PRO197      0.0310
    108  CG         4.4020    0.6670   15.3640 C.3   197  PRO197      0.0237
    109  CD         2.9530    0.1720   15.2980 C.3   197  PRO197      0.0939
    110  N          2.4440    4.8380   16.0930 N.am  198  PRO198     -0.2727
    111  CA         3.3090    5.0080   17.2610 C.3   198  PRO198      0.1402
    112  C          2.6120    5.0590   18.6190 C.2   198  PRO198      0.2269
    113  O          3.2180    5.5880   19.5390 O.2   198  PRO198     -0.2865
    114  CB         3.8050    6.4320   17.0340 C.3   198  PRO198      0.0296
    115  CG         2.5830    7.1650   16.4530 C.3   198  PRO198      0.0237
    116  CD         1.7770    6.1010   15.7100 C.3   198  PRO198      0.0939
@<TRIPOS>BOND
     1    21    20    1
     2    16    15    1
     3    16    19    1
     4    16    17    1
     5    19    20    1
     6    17    18    2
     7    20    22    1
     8    56    55   ar
     9    23    24    1
    10    57    55   ar
    11    24    25    1
    12    24    27    1
    13    55    54    1
    14    25    26    2
    15    44    43    2
    16    52    51    2
    17    27    28    1
    18    54    53    1
    19    53    50    1
    20    49    50    1
    21    43    42    1
    22    41    42    1
    23    51    50    1
    24    31    32    1
    25    28    29    2
    26    28    30   am
    27    42    45    1
    28    45    46    1
    29    32    33    1
    30    32    35    1
    31    33    34    2
    32    40    38   ar
    33    40    39   ar
    34    38    36   ar
    35    46    47    2
    36    46    48   am
    37    39    37   ar
    38    36    37   ar
    39    36    35    1
    40     4     3    2
    41    61    60    2
    42    70    67    1
    43    70    71    1
    44    76    79    1
    45    76    75    1
    46    76    77    1
    47    79    80    1
    48     1     2    1
    49    67    68    1
    50    67    66    1
    51     3     2    1
    52    60    66   am
    53    60    59    1
    54    71    72    1
    55    63    65    1
    56    63    62    1
    57    77    78    2
    58    68    69    2
    59     2     5    1
    60    73    72    2
    61    72    74   am
    62     9    10   ar
    63     9     7   ar
    64    12    10   ar
    65    12    14   ar
    66    10     8   ar
    67     7     6   ar
    68    14    13   ar
    69    80    81   ar
    70    80    82   ar
    71    59    62    1
    72    59    58    1
    73     8     6   ar
    74     8    11   ar
    75     6     5    1
    76    13    11   ar
    77    62    64    1
    78    81    83   ar
    79    82    84   ar
    80    83    84   ar
    81    91    93   ar
    82    91    90   ar
    83    89    90    1
    84    89    86    1
    85   102   100    1
    86    93    95   ar
    87   106   105    2
    88    90    92   ar
    89   100   101    1
    90   100    97    1
    91    85    86    1
    92    95    94   ar
    93    92    94   ar
    94   107   108    1
    95   107   104    1
    96    86    87    1
    97   109   108    1
    98   109   103    1
    99   105   104    1
   100   105   110   am
   101    87    88    2
   102   116   110    1
   103   116   115    1
   104   103   104    1
   105   103    98   am
   106    97    98    1
   107    97    96    1
   108   110   111    1
   109    98    99    2
   110   115   114    1
   111   114   111    1
   112   111   112    1
   113   112   113    2
