@<TRIPOS>MOLECULE
tmp/2hkmA00.pdb
 95 93 0 0 0
SMALL
GASTEIGER

@<TRIPOS>ATOM
      1  N          2.1810    8.7030    5.0160 N.3    14  ASP14      -0.1225
      2  CA         1.4590    8.5230    6.2860 C.3    14  ASP14       0.1805
      3  C          2.2840    7.5340    7.1070 C.2    14  ASP14       0.2598
      4  O          2.2420    6.3300    6.8760 O.2    14  ASP14      -0.2718
      5  CB         0.0580    7.9550    6.0030 C.3    14  ASP14       0.1424
      6  CG        -0.7260    7.5870    7.2820 C.2    14  ASP14       0.3668
      7  OD1       -0.3040    7.9910    8.3680 O.co2  14  ASP14      -0.2456
      8  OD2       -1.7640    6.8790    7.1880 O.co2  14  ASP14      -0.2456
      9  N          3.1100    8.0440    8.0020 N.am   15  GLY15      -0.1957
     10  CA         3.9270    7.1600    8.8040 C.3    15  GLY15       0.1869
     11  C          5.1590    7.8530    9.2720 C.2    15  GLY15       0.2309
     12  O          5.2600    9.0490    9.1780 O.2    15  GLY15      -0.2863
     13  N          5.9330    4.5550   -2.0890 N.3    55  TYR55      -0.1241
     14  CA         5.9500    4.6210   -0.6300 C.3    55  TYR55       0.1605
     15  C          5.9610    3.2390    0.0000 C.2    55  TYR55       0.2264
     16  O          4.9450    2.7720    0.4880 O.2    55  TYR55      -0.2867
     17  CB         4.7540    5.4370   -0.1370 C.3    55  TYR55       0.0534
     18  CG         4.8870    6.8740   -0.5450 C.ar   55  TYR55      -0.0201
     19  CD1        4.1200    7.3940   -1.5590 C.ar   55  TYR55      -0.0009
     20  CD2        5.8560    7.6830    0.0430 C.ar   55  TYR55      -0.0009
     21  CE1        4.2900    8.7320   -1.9770 C.ar   55  TYR55       0.0417
     22  CE2        6.0250    8.9890   -0.3510 C.ar   55  TYR55       0.0417
     23  CZ         5.2350    9.5050   -1.3490 C.ar   55  TYR55       0.1957
     24  OH         5.4180   10.8170   -1.7280 O.3    55  TYR55      -0.2866
     25  N          6.8970    0.5120    2.8100 N.3    57  ASP57      -0.1239
     26  CA         7.1280    0.4610    4.2350 C.3    57  ASP57       0.1674
     27  C          8.2930   -0.4590    4.5350 C.2    57  ASP57       0.2266
     28  O          8.6950   -1.2860    3.6980 O.2    57  ASP57      -0.2867
     29  CB         5.8840   -0.0070    4.9850 C.3    57  ASP57       0.1410
     30  CG         4.7340    0.9980    4.9080 C.2    57  ASP57       0.3668
     31  OD1        5.0130    2.2130    4.7470 O.co2  57  ASP57      -0.2456
     32  OD2        3.5610    0.5800    5.0570 O.co2  57  ASP57      -0.2456
     33  N         -3.2710    5.7620    1.3590 N.3    85  ASN85      -0.1225
     34  CA        -2.2190    5.6540    2.4020 C.3    85  ASN85       0.1785
     35  C         -2.7380    5.4770    3.8480 C.2    85  ASN85       0.2597
     36  O         -1.9400    5.5690    4.7760 O.2    85  ASN85      -0.2718
     37  CB        -1.1860    6.7990    2.3220 C.3    85  ASN85       0.1169
     38  CG        -1.7120    8.1300    2.8240 C.2    85  ASN85       0.2627
     39  OD1       -2.7740    8.2220    3.4500 O.2    85  ASN85      -0.2716
     40  ND2       -0.9240    9.1880    2.5840 N.am   85  ASN85      -0.0877
     41  N         -4.0270    5.1830    4.0140 N.am   86  ASP86      -0.1960
     42  CA        -4.6080    4.8460    5.3510 C.3    86  ASP86       0.1840
     43  C         -4.6230    3.3240    5.6150 C.2    86  ASP86       0.2622
     44  O         -5.3170    2.8440    6.5290 O.2    86  ASP86      -0.2715
     45  CB        -6.0210    5.3700    5.4830 C.3    86  ASP86       0.1450
     46  CG        -6.1140    6.8730    5.3800 C.2    86  ASP86       0.3671
     47  OD1       -5.1280    7.5650    5.6140 O.co2  86  ASP86      -0.2456
     48  OD2       -7.2200    7.3440    5.0940 O.co2  86  ASP86      -0.2456
     49  N         -3.8740    2.5860    4.8040 N.am   87  VAL87      -0.1963
     50  CA        -3.6540    1.1580    5.0180 C.3    87  VAL87       0.1727
     51  C         -2.1690    0.8770    5.2080 C.2    87  VAL87       0.2616
     52  O         -1.3120    1.6320    4.7810 O.2    87  VAL87      -0.2715
     53  CB        -4.2350    0.2780    3.8570 C.3    87  VAL87       0.0290
     54  CG1       -5.7340    0.3790    3.7920 C.3    87  VAL87       0.0023
     55  CG2       -3.5970    0.6490    2.4940 C.3    87  VAL87       0.0023
     56  N         -1.8940   -0.2490    5.8560 N.am   88  ASN88      -0.1958
     57  CA        -0.5550   -0.6970    6.1840 C.3    88  ASN88       0.1819
     58  C          0.0300   -1.4170    4.9860 C.2    88  ASN88       0.2621
     59  O         -0.3740   -2.5420    4.6860 O.2    88  ASN88      -0.2715
     60  CB        -0.6420   -1.6480    7.3870 C.3    88  ASN88       0.1195
     61  CG         0.6960   -2.1580    7.8230 C.2    88  ASN88       0.2630
     62  OD1        1.7310   -1.5730    7.5240 O.2    88  ASN88      -0.2716
     63  ND2        0.6860   -3.3140    8.5330 N.am   88  ASN88      -0.0877
     64  N          0.9620   -0.7760    4.2970 N.am   89  TRP89      -0.1974
     65  CA         1.5760   -1.4020    3.1230 C.3    89  TRP89       0.1640
     66  C          2.5480   -2.5320    3.4950 C.2    89  TRP89       0.2290
     67  O          3.1140   -3.1690    2.6120 O.2    89  TRP89      -0.2864
     68  CB         2.1470   -0.3830    2.1000 C.3    89  TRP89       0.0576
     69  CG         1.0120    0.1890    1.3260 C.ar   89  TRP89       0.0006
     70  CD1        0.4920    1.4550    1.4170 C.ar   89  TRP89       0.0946
     71  CD2        0.1490   -0.5330    0.4540 C.ar   89  TRP89       0.0152
     72  NE1       -0.6450    1.5590    0.6360 N.ar   89  TRP89      -0.2442
     73  CE2       -0.8420    0.3610    0.0000 C.ar   89  TRP89       0.0810
     74  CE3        0.1770   -1.8330   -0.0650 C.ar   89  TRP89       0.0012
     75  CZ2       -1.8290   -0.0210   -0.9000 C.ar   89  TRP89       0.0191
     76  CZ3       -0.7880   -2.2030   -0.9670 C.ar   89  TRP89       0.0001
     77  CH2       -1.7800   -1.2980   -1.3770 C.ar   89  TRP89       0.0015
     78  N          4.2470   -2.6070   11.4190 N.3    98  PHE98      -0.1241
     79  CA         4.7010   -1.4390   10.6850 C.3    98  PHE98       0.1605
     80  C          5.7960   -0.7150   11.4480 C.2    98  PHE98       0.2264
     81  O          5.5930   -0.3320   12.6010 O.2    98  PHE98      -0.2867
     82  CB         3.5320   -0.4770   10.4340 C.3    98  PHE98       0.0534
     83  CG         3.9660    0.8700    9.9160 C.ar   98  PHE98      -0.0203
     84  CD1        4.4760    1.0100    8.6510 C.ar   98  PHE98      -0.0042
     85  CD2        3.9300    1.9940   10.7270 C.ar   98  PHE98      -0.0042
     86  CE1        4.9080    2.2500    8.2010 C.ar   98  PHE98      -0.0003
     87  CE2        4.3690    3.2010   10.2860 C.ar   98  PHE98      -0.0003
     88  CZ         4.8690    3.3370    9.0310 C.ar   98  PHE98      -0.0000
     89  N          8.1950    4.3370    7.0370 N.3   101  THR101     -0.1218
     90  CA         7.8690    4.4730    5.6120 C.3   101  THR101      0.1862
     91  C          9.0050    5.1500    4.8680 C.2   101  THR101      0.2287
     92  O          9.5940    6.1080    5.3780 O.2   101  THR101     -0.2866
     93  CB         6.6120    5.3260    5.4110 C.3   101  THR101      0.1770
     94  OG1        5.5610    4.8380    6.2310 O.3   101  THR101     -0.2211
     95  CG2        6.1440    5.2740    3.9820 C.3   101  THR101      0.0375
@<TRIPOS>BOND
     1    13    14    1
     2    21    19   ar
     3    21    23   ar
     4    24    23    1
     5    19    18   ar
     6    77    76   ar
     7    77    75   ar
     8    23    22   ar
     9    76    74   ar
    10    75    73   ar
    11    14    17    1
    12    14    15    1
    13    18    17    1
    14    18    20   ar
    15    22    20   ar
    16    74    71   ar
    17    15    16    2
    18    73    71   ar
    19    73    72   ar
    20    71    69   ar
    21    72    70   ar
    22    69    70   ar
    23    69    68    1
    24    33    34    1
    25    68    65    1
    26    37    34    1
    27    37    38    1
    28    34    35    1
    29    55    53    1
    30    40    38   am
    31    67    66    2
    32    25    26    1
    33    38    39    2
    34    65    66    1
    35    65    64    1
    36    28    27    2
    37    54    53    1
    38    35    41   am
    39    35    36    2
    40    53    50    1
    41    95    93    1
    42    41    42    1
    43    26    27    1
    44    26    29    1
    45    64    58   am
    46    59    58    2
    47    31    30   ar
    48    52    51    2
    49    49    50    1
    50    49    43   am
    51    91    92    2
    52    91    90    1
    53    30    29    1
    54    30    32   ar
    55    58    57    1
    56     1     2    1
    57    50    51    1
    58    48    46   ar
    59    51    56   am
    60    42    45    1
    61    42    43    1
    62    46    45    1
    63    46    47   ar
    64    93    90    1
    65    93    94    1
    66    90    89    1
    67    43    44    2
    68    56    57    1
    69     5     2    1
    70     5     6    1
    71    57    60    1
    72     2     3    1
    73     4     3    2
    74     3     9   am
    75     8     6   ar
    76     6     7   ar
    77    60    61    1
    78    62    61    2
    79    61    63   am
    80     9    10    1
    81    86    84   ar
    82    86    88   ar
    83    84    83   ar
    84    10    11    1
    85    88    87   ar
    86    12    11    2
    87    83    82    1
    88    83    85   ar
    89    87    85   ar
    90    82    79    1
    91    79    78    1
    92    79    80    1
    93    80    81    2
