@<TRIPOS>MOLECULE
tmp/2hkrB00.pdb
 95 93 0 0 0
SMALL
GASTEIGER

@<TRIPOS>ATOM
      1  N          3.2960    2.1440   43.0500 N.3    26  ASP26      -0.1225
      2  CA         3.9750    2.3250   41.7620 C.3    26  ASP26       0.1805
      3  C          3.0570    1.7100   40.7080 C.2    26  ASP26       0.2598
      4  O          2.9450    0.5030   40.6050 O.2    26  ASP26      -0.2718
      5  CB         5.3260    1.6100   41.8190 C.3    26  ASP26       0.1424
      6  CG         6.0850    1.6420   40.5050 C.2    26  ASP26       0.3668
      7  OD1        5.7200    2.4330   39.6090 O.co2  26  ASP26      -0.2456
      8  OD2        7.0780    0.8710   40.3840 O.co2  26  ASP26      -0.2456
      9  N          2.3250    2.5530   40.0060 N.am   27  GLY27      -0.1957
     10  CA         1.4170    2.0860   38.9820 C.3    27  GLY27       0.1869
     11  C          0.2220    3.0000   38.8110 C.2    27  GLY27       0.2309
     12  O          0.1450    4.0630   39.4110 O.2    27  GLY27      -0.2863
     13  N         -0.8200   -3.9790   48.3410 N.3    67  TYR67      -0.1241
     14  CA        -0.8300   -3.3010   47.0600 C.3    67  TYR67       0.1605
     15  C         -1.0170   -4.3040   45.8910 C.2    67  TYR67       0.2264
     16  O         -0.1500   -4.4400   45.0100 O.2    67  TYR67      -0.2867
     17  CB         0.4650   -2.4850   46.9240 C.3    67  TYR67       0.0534
     18  CG         0.6580   -1.3990   47.9930 C.ar   67  TYR67      -0.0201
     19  CD1        1.4630   -1.6050   49.1190 C.ar   67  TYR67      -0.0009
     20  CD2        0.0280   -0.1640   47.8670 C.ar   67  TYR67      -0.0009
     21  CE1        1.6460   -0.5840   50.0830 C.ar   67  TYR67       0.0417
     22  CE2        0.1920    0.8430   48.8150 C.ar   67  TYR67       0.0417
     23  CZ         1.0090    0.6450   49.9120 C.ar   67  TYR67       0.1957
     24  OH         1.1670    1.6650   50.8400 O.3    67  TYR67      -0.2866
     25  N         -2.2250   -5.9690   42.4820 N.3    69  ASP69      -0.1239
     26  CA        -2.4340   -5.4610   41.1330 C.3    69  ASP69       0.1674
     27  C         -3.6800   -6.1030   40.5440 C.2    69  ASP69       0.2266
     28  O         -4.1890   -7.1390   41.0330 O.2    69  ASP69      -0.2867
     29  CB        -1.2430   -5.7550   40.2410 C.3    69  ASP69       0.1410
     30  CG        -0.0340   -4.9480   40.5850 C.2    69  ASP69       0.3668
     31  OD1       -0.1620   -3.8390   41.1560 O.co2  69  ASP69      -0.2456
     32  OD2        1.0780   -5.4320   40.2410 O.co2  69  ASP69      -0.2456
     33  N          8.4200   -2.2030   45.3450 N.3    97  ASN97      -0.1225
     34  CA         7.4090   -1.8690   44.3430 C.3    97  ASN97       0.1785
     35  C          7.9120   -1.6020   42.9200 C.2    97  ASN97       0.2597
     36  O          7.1600   -1.0870   42.0870 O.2    97  ASN97      -0.2718
     37  CB         6.4420   -0.7690   44.8490 C.3    97  ASN97       0.1169
     38  CG         7.0170    0.6150   44.8000 C.2    97  ASN97       0.2627
     39  OD1        8.0950    0.8370   44.2540 O.2    97  ASN97      -0.2716
     40  ND2        6.2950    1.5850   45.3840 N.am   97  ASN97      -0.0877
     41  N          9.1710   -1.9750   42.6340 N.am   98  ASP98      -0.1960
     42  CA         9.7140   -1.8640   41.2730 C.3    98  ASP98       0.1840
     43  C          9.6050   -3.1910   40.5270 C.2    98  ASP98       0.2622
     44  O         10.2890   -3.4000   39.5240 O.2    98  ASP98      -0.2715
     45  CB        11.1690   -1.4060   41.2760 C.3    98  ASP98       0.1450
     46  CG        11.3590   -0.0300   41.8690 C.2    98  ASP98       0.3671
     47  OD1       10.4050    0.7690   41.8930 O.co2  98  ASP98      -0.2456
     48  OD2       12.4950    0.2470   42.3300 O.co2  98  ASP98      -0.2456
     49  N          8.7860   -4.1220   41.0400 N.am   99  VAL99      -0.1963
     50  CA         8.4830   -5.3520   40.3540 C.3    99  VAL99       0.1727
     51  C          6.9920   -5.4410   40.0900 C.2    99  VAL99       0.2616
     52  O          6.1880   -4.8150   40.7660 O.2    99  VAL99      -0.2715
     53  CB         8.9760   -6.6020   41.1330 C.3    99  VAL99       0.0290
     54  CG1       10.4870   -6.6400   41.1340 C.3    99  VAL99       0.0023
     55  CG2        8.4100   -6.6280   42.5580 C.3    99  VAL99       0.0023
     56  N          6.6270   -6.2440   39.1150 N.am  100  ASN100     -0.1958
     57  CA         5.2460   -6.4490   38.7030 C.3   100  ASN100      0.1819
     58  C          4.5850   -7.4800   39.6140 C.2   100  ASN100      0.2621
     59  O          4.8760   -8.6650   39.4980 O.2   100  ASN100     -0.2715
     60  CB         5.2670   -6.9820   37.2610 C.3   100  ASN100      0.1195
     61  CG         3.8860   -7.2450   36.6960 C.2   100  ASN100      0.2630
     62  OD1        2.9010   -6.7320   37.2060 O.2   100  ASN100     -0.2716
     63  ND2        3.8160   -8.0650   35.6250 N.am  100  ASN100     -0.0877
     64  N          3.6830   -7.0440   40.4940 N.am  101  TRP101     -0.1974
     65  CA         3.0290   -7.9890   41.3900 C.3   101  TRP101      0.1640
     66  C          1.9710   -8.8420   40.6860 C.2   101  TRP101      0.2290
     67  O          1.4060   -9.7410   41.3180 O.2   101  TRP101     -0.2864
     68  CB         2.5690   -7.2860   42.7000 C.3   101  TRP101      0.0576
     69  CG         3.7530   -7.1140   43.6120 C.ar  101  TRP101      0.0006
     70  CD1        4.3840   -5.9590   43.9660 C.ar  101  TRP101      0.0946
     71  CD2        4.5050   -8.1710   44.1890 C.ar  101  TRP101      0.0152
     72  NE1        5.5010   -6.2460   44.7410 N.ar  101  TRP101     -0.2442
     73  CE2        5.5670   -7.6010   44.9030 C.ar  101  TRP101      0.0810
     74  CE3        4.3400   -9.5510   44.2190 C.ar  101  TRP101      0.0012
     75  CZ2        6.4770   -8.3720   45.6000 C.ar  101  TRP101      0.0191
     76  CZ3        5.2360  -10.3040   44.9020 C.ar  101  TRP101      0.0001
     77  CH2        6.2860   -9.7150   45.5930 C.ar  101  TRP101      0.0015
     78  N          0.3610   -6.1700   33.2400 N.3   110  PHE110     -0.1241
     79  CA        -0.0140   -5.2590   34.3300 C.3   110  PHE110      0.1605
     80  C         -1.0640   -4.2460   33.8700 C.2   110  PHE110      0.2264
     81  O         -0.8550   -3.5040   32.9060 O.2   110  PHE110     -0.2867
     82  CB         1.2250   -4.5150   34.8610 C.3   110  PHE110      0.0534
     83  CG         0.8920   -3.4030   35.7960 C.ar  110  PHE110     -0.0203
     84  CD1        0.4200   -3.6940   37.0620 C.ar  110  PHE110     -0.0042
     85  CD2        0.9850   -2.0820   35.4020 C.ar  110  PHE110     -0.0042
     86  CE1        0.0500   -2.6690   37.9150 C.ar  110  PHE110     -0.0003
     87  CE2        0.6410   -1.0600   36.2680 C.ar  110  PHE110     -0.0003
     88  CZ         0.1660   -1.3690   37.5120 C.ar  110  PHE110     -0.0000
     89  N         -2.9540   -0.8330   39.7190 N.3   113  THR113     -0.1218
     90  CA        -2.6310   -1.2290   41.0780 C.3   113  THR113      0.1862
     91  C         -3.4700   -0.4340   42.0740 C.2   113  THR113      0.2287
     92  O         -4.0050    0.6240   41.7690 O.2   113  THR113     -0.2866
     93  CB        -1.1340   -1.0320   41.3780 C.3   113  THR113      0.1770
     94  OG1       -0.8280   -1.5220   42.6900 O.3   113  THR113     -0.2211
     95  CG2       -0.7450    0.4330   41.2670 C.3   113  THR113      0.0375
@<TRIPOS>BOND
     1    81    80    2
     2    78    79    1
     3    80    79    1
     4    79    82    1
     5    82    83    1
     6    85    83   ar
     7    85    87   ar
     8    63    61   am
     9    83    84   ar
    10    87    88   ar
    11    61    62    2
    12    61    60    1
    13    84    86   ar
    14    60    57    1
    15    88    86   ar
    16    57    56    1
    17    57    58    1
    18    11    10    1
    19    11    12    2
    20    10     9    1
    21    56    51   am
    22    59    58    2
    23    44    43    2
    24     7     6   ar
    25    58    64   am
    26    89    90    1
    27     9     3   am
    28    51    50    1
    29    51    52    2
    30    32    30   ar
    31    29    30    1
    32    29    26    1
    33    50    49    1
    34    50    53    1
    35     8     6   ar
    36    64    65    1
    37     6     5    1
    38    43    49   am
    39    43    42    1
    40    27    28    2
    41    27    26    1
    42    30    31   ar
    43     4     3    2
    44    66    67    2
    45    66    65    1
    46     3     2    1
    47    90    93    1
    48    90    91    1
    49    53    54    1
    50    53    55    1
    51    26    25    1
    52    95    93    1
    53    42    45    1
    54    42    41    1
    55    45    46    1
    56    93    94    1
    57    65    68    1
    58     2     5    1
    59     2     1    1
    60    92    91    2
    61    46    47   ar
    62    46    48   ar
    63    36    35    2
    64    41    35   am
    65    68    69    1
    66    35    34    1
    67    69    70   ar
    68    69    71   ar
    69    70    72   ar
    70    71    74   ar
    71    71    73   ar
    72    74    76   ar
    73    39    38    2
    74    34    37    1
    75    34    33    1
    76    72    73   ar
    77    38    37    1
    78    38    40   am
    79    76    77   ar
    80    73    75   ar
    81    16    15    2
    82    77    75   ar
    83    15    14    1
    84    17    14    1
    85    17    18    1
    86    14    13    1
    87    20    18   ar
    88    20    22   ar
    89    18    19   ar
    90    22    23   ar
    91    19    21   ar
    92    23    21   ar
    93    23    24    1
