@<TRIPOS>MOLECULE
tmp/2hkrA00.pdb
 95 93 0 0 0
SMALL
GASTEIGER

@<TRIPOS>ATOM
      1  N          2.2750    8.6930    5.0100 N.3    14  ASP14      -0.1225
      2  CA         1.5550    8.5370    6.2650 C.3    14  ASP14       0.1805
      3  C          2.3650    7.5270    7.0460 C.2    14  ASP14       0.2598
      4  O          2.3300    6.3460    6.7470 O.2    14  ASP14      -0.2718
      5  CB         0.1410    7.9950    5.9840 C.3    14  ASP14       0.1424
      6  CG        -0.6470    7.6470    7.2500 C.2    14  ASP14       0.3668
      7  OD1       -0.2640    8.0770    8.3480 O.co2  14  ASP14      -0.2456
      8  OD2       -1.6740    6.9330    7.1360 O.co2  14  ASP14      -0.2456
      9  N          3.1910    7.9980    7.9530 N.am   15  GLY15      -0.1957
     10  CA         4.0190    7.1040    8.7600 C.3    15  GLY15       0.1869
     11  C          5.2540    7.8200    9.2710 C.2    15  GLY15       0.2309
     12  O          5.3150    9.0370    9.2720 O.2    15  GLY15      -0.2863
     13  N          6.0990    4.4610   -1.9440 N.3    55  TYR55      -0.1241
     14  CA         6.1970    4.4810   -0.4870 C.3    55  TYR55       0.1605
     15  C          6.1720    3.0730    0.0690 C.2    55  TYR55       0.2264
     16  O          5.1690    2.6210    0.6440 O.2    55  TYR55      -0.2867
     17  CB         5.0650    5.3200    0.0960 C.3    55  TYR55       0.0534
     18  CG         5.1990    6.7640   -0.3130 C.ar   55  TYR55      -0.0201
     19  CD1        4.4120    7.2910   -1.3090 C.ar   55  TYR55      -0.0009
     20  CD2        6.1690    7.5760    0.2630 C.ar   55  TYR55      -0.0009
     21  CE1        4.5400    8.6170   -1.6980 C.ar   55  TYR55       0.0417
     22  CE2        6.3130    8.9050   -0.1340 C.ar   55  TYR55       0.0417
     23  CZ         5.4820    9.4030   -1.1060 C.ar   55  TYR55       0.1957
     24  OH         5.5950   10.7260   -1.5090 O.3    55  TYR55      -0.2866
     25  N          7.1270    0.4120    2.7680 N.3    57  ASP57      -0.1239
     26  CA         7.3410    0.4100    4.1910 C.3    57  ASP57       0.1674
     27  C          8.5110   -0.5130    4.5420 C.2    57  ASP57       0.2266
     28  O          8.9850   -1.3270    3.7230 O.2    57  ASP57      -0.2867
     29  CB         6.0950   -0.0500    4.9260 C.3    57  ASP57       0.1410
     30  CG         4.9840    0.9570    4.9030 C.2    57  ASP57       0.3668
     31  OD1        5.2590    2.1760    4.7500 O.co2  57  ASP57      -0.2456
     32  OD2        3.8290    0.5210    5.1230 O.co2  57  ASP57      -0.2456
     33  N         -3.1140    5.7600    1.4130 N.3    85  ASN85      -0.1225
     34  CA        -2.0900    5.6570    2.4720 C.3    85  ASN85       0.1785
     35  C         -2.6140    5.5200    3.8870 C.2    85  ASN85       0.2597
     36  O         -1.8320    5.6530    4.8340 O.2    85  ASN85      -0.2718
     37  CB        -1.0350    6.7720    2.3560 C.3    85  ASN85       0.1169
     38  CG        -1.5150    8.1220    2.8350 C.2    85  ASN85       0.2627
     39  OD1       -2.5920    8.2630    3.4220 O.2    85  ASN85      -0.2716
     40  ND2       -0.6880    9.1520    2.5710 N.am   85  ASN85      -0.0877
     41  N         -3.8890    5.1520    4.0260 N.am   86  ASP86      -0.1960
     42  CA        -4.4630    4.8270    5.3450 C.3    86  ASP86       0.1840
     43  C         -4.4750    3.3170    5.6340 C.2    86  ASP86       0.2622
     44  O         -5.1910    2.8600    6.5430 O.2    86  ASP86      -0.2715
     45  CB        -5.8840    5.3880    5.5280 C.3    86  ASP86       0.1450
     46  CG        -5.9520    6.8850    5.4110 C.2    86  ASP86       0.3671
     47  OD1       -4.9280    7.5510    5.6040 O.co2  86  ASP86      -0.2456
     48  OD2       -7.0520    7.3790    5.1020 O.co2  86  ASP86      -0.2456
     49  N         -3.7070    2.5710    4.8480 N.am   87  VAL87      -0.1963
     50  CA        -3.4960    1.1510    5.0720 C.3    87  VAL87       0.1727
     51  C         -2.0220    0.8710    5.2940 C.2    87  VAL87       0.2616
     52  O         -1.1560    1.6330    4.8870 O.2    87  VAL87      -0.2715
     53  CB        -4.0660    0.2940    3.9240 C.3    87  VAL87       0.0290
     54  CG1       -5.5810    0.3650    3.9260 C.3    87  VAL87       0.0023
     55  CG2       -3.4910    0.7270    2.5630 C.3    87  VAL87       0.0023
     56  N         -1.7630   -0.2300    5.9780 N.am   88  ASN88      -0.1958
     57  CA        -0.4140   -0.6690    6.2780 C.3    88  ASN88       0.1819
     58  C          0.1870   -1.3940    5.0820 C.2    88  ASN88       0.2621
     59  O         -0.2150   -2.5210    4.7680 O.2    88  ASN88      -0.2715
     60  CB        -0.5010   -1.6380    7.4430 C.3    88  ASN88       0.1195
     61  CG         0.8370   -2.1580    7.8860 C.2    88  ASN88       0.2630
     62  OD1        1.8880   -1.5860    7.5550 O.2    88  ASN88      -0.2716
     63  ND2        0.8130   -3.2870    8.6080 N.am   88  ASN88      -0.0877
     64  N          1.1220   -0.7580    4.3840 N.am   89  TRP89      -0.1974
     65  CA         1.7140   -1.3850    3.2040 C.3    89  TRP89       0.1640
     66  C          2.6660   -2.5240    3.5600 C.2    89  TRP89       0.2290
     67  O          3.1570   -3.1990    2.6720 O.2    89  TRP89      -0.2864
     68  CB         2.2770   -0.3410    2.2130 C.3    89  TRP89       0.0576
     69  CG         1.1250    0.2100    1.3970 C.ar   89  TRP89       0.0006
     70  CD1        0.5830    1.4750    1.4400 C.ar   89  TRP89       0.0946
     71  CD2        0.3030   -0.5400    0.5030 C.ar   89  TRP89       0.0152
     72  NE1       -0.5160    1.5440    0.6150 N.ar   89  TRP89      -0.2442
     73  CE2       -0.7020    0.3220    0.0250 C.ar   89  TRP89       0.0810
     74  CE3        0.3610   -1.8370    0.0160 C.ar   89  TRP89       0.0012
     75  CZ2       -1.6650   -0.0950   -0.8740 C.ar   89  TRP89       0.0191
     76  CZ3       -0.5750   -2.2470   -0.8900 C.ar   89  TRP89       0.0001
     77  CH2       -1.5740   -1.3740   -1.3400 C.ar   89  TRP89       0.0015
     78  N          4.3830   -2.5960   11.4570 N.3    98  PHE98      -0.1241
     79  CA         4.8410   -1.4190   10.7290 C.3    98  PHE98       0.1605
     80  C          5.9450   -0.6750   11.4810 C.2    98  PHE98       0.2264
     81  O          5.7530   -0.2740   12.6470 O.2    98  PHE98      -0.2867
     82  CB         3.6610   -0.4590   10.4780 C.3    98  PHE98       0.0534
     83  CG         4.0920    0.8700    9.9360 C.ar   98  PHE98      -0.0203
     84  CD1        4.6340    0.9760    8.6700 C.ar   98  PHE98      -0.0042
     85  CD2        4.0490    2.0050   10.7220 C.ar   98  PHE98      -0.0042
     86  CE1        5.0610    2.2320    8.1920 C.ar   98  PHE98      -0.0003
     87  CE2        4.4970    3.2200   10.2560 C.ar   98  PHE98      -0.0003
     88  CZ         4.9940    3.3320    8.9950 C.ar   98  PHE98      -0.0000
     89  N          8.3460    4.3060    6.9860 N.3   101  THR101     -0.1218
     90  CA         8.0220    4.4630    5.5560 C.3   101  THR101      0.1862
     91  C          9.2070    5.1070    4.8310 C.2   101  THR101      0.2287
     92  O          9.7860    6.0780    5.3260 O.2   101  THR101     -0.2866
     93  CB         6.8240    5.3870    5.4020 C.3   101  THR101      0.1770
     94  OG1        5.7270    4.8560    6.1330 O.3   101  THR101     -0.2211
     95  CG2        6.3930    5.5380    3.9350 C.3   101  THR101      0.0375
@<TRIPOS>BOND
     1    13    14    1
     2    21    19   ar
     3    21    23   ar
     4    24    23    1
     5    77    76   ar
     6    77    75   ar
     7    19    18   ar
     8    23    22   ar
     9    76    74   ar
    10    75    73   ar
    11    14    15    1
    12    14    17    1
    13    18    17    1
    14    18    20   ar
    15    22    20   ar
    16    74    71   ar
    17    73    71   ar
    18    73    72   ar
    19    15    16    2
    20    71    69   ar
    21    72    70   ar
    22    69    70   ar
    23    69    68    1
    24    33    34    1
    25    68    65    1
    26    37    34    1
    27    37    38    1
    28    34    35    1
    29    55    53    1
    30    40    38   am
    31    67    66    2
    32    25    26    1
    33    38    39    2
    34    65    66    1
    35    65    64    1
    36    28    27    2
    37    35    41   am
    38    35    36    2
    39    53    54    1
    40    53    50    1
    41    95    93    1
    42    41    42    1
    43    26    27    1
    44    26    29    1
    45    64    58   am
    46    31    30   ar
    47    59    58    2
    48    91    92    2
    49    91    90    1
    50    49    50    1
    51    49    43   am
    52    52    51    2
    53    30    29    1
    54    30    32   ar
    55     1     2    1
    56    50    51    1
    57    58    57    1
    58    48    46   ar
    59    51    56   am
    60    42    45    1
    61    42    43    1
    62    93    90    1
    63    93    94    1
    64    46    45    1
    65    46    47   ar
    66    90    89    1
    67    43    44    2
    68    56    57    1
    69     5     2    1
    70     5     6    1
    71     2     3    1
    72    57    60    1
    73     4     3    2
    74     3     9   am
    75     8     6   ar
    76     6     7   ar
    77    60    61    1
    78    62    61    2
    79    61    63   am
    80     9    10    1
    81    86    84   ar
    82    86    88   ar
    83    84    83   ar
    84    10    11    1
    85    88    87   ar
    86    11    12    2
    87    83    82    1
    88    83    85   ar
    89    87    85   ar
    90    82    79    1
    91    79    78    1
    92    79    80    1
    93    80    81    2
