@<TRIPOS>MOLECULE
tmp/2hkuB00.pdb
 132 125 0 0 0
SMALL
GASTEIGER

@<TRIPOS>ATOM
      1  N         34.4910   19.0180   50.2950 N.3    56  LEU56      -0.1245
      2  CA        35.0300   19.8190   51.3840 C.3    56  LEU56       0.1561
      3  C         36.4980   20.1500   51.1350 C.2    56  LEU56       0.2260
      4  O         36.9300   21.2830   51.2760 O.2    56  LEU56      -0.2867
      5  CB        34.8510   19.0950   52.7320 C.3    56  LEU56       0.0270
      6  CG        33.3510   18.9450   53.2030 C.3    56  LEU56       0.0019
      7  CD1       33.3480   18.2650   54.5250 C.3    56  LEU56       0.0001
      8  CD2       32.6260   20.2930   53.3550 C.3    56  LEU56       0.0001
      9  N         36.7370   22.7560   48.5520 N.3    59  GLY59      -0.1210
     10  CA        36.4250   24.0830   49.0670 C.3    59  GLY59       0.1956
     11  C         37.6070   24.6290   49.8610 C.2    59  GLY59       0.2611
     12  O         37.8780   25.7910   49.8090 O.2    59  GLY59      -0.2717
     13  N         38.2940   23.7770   50.5980 N.am   60  LYS60      -0.1979
     14  CA        39.4790   24.1860   51.4120 C.3    60  LYS60       0.1596
     15  C         40.6790   24.5650   50.5310 C.2    60  LYS60       0.2287
     16  O         41.2710   25.6090   50.7080 O.2    60  LYS60      -0.2864
     17  CB        39.8340   23.0410   52.3500 C.3    60  LYS60       0.0298
     18  CG        41.1700   23.2500   53.1370 C.3    60  LYS60       0.0038
     19  CD        41.0060   24.0620   54.4350 C.3    60  LYS60       0.0206
     20  CE        42.1950   23.8150   55.4860 C.3    60  LYS60       0.1093
     21  NZ        43.5830   24.2290   54.9720 N.3    60  LYS60      -0.1314
     22  N         40.2020   25.7210   47.4280 N.3    62  ALA62      -0.1231
     23  CA        39.8050   26.9940   46.8540 C.3    62  ALA62       0.1694
     24  C         40.1320   28.1960   47.7460 C.2    62  ALA62       0.2591
     25  O         40.6230   29.2640   47.2770 O.2    62  ALA62      -0.2718
     26  CB        38.1990   26.9930   46.4270 C.3    62  ALA62       0.0304
     27  N         39.8760   28.0190   49.0360 N.am   63  GLU63      -0.1979
     28  CA        40.1130   29.0910   50.0370 C.3    63  GLU63       0.1602
     29  C         41.6540   29.2870   50.1470 C.2    63  GLU63       0.2287
     30  O         42.1090   30.3980   50.2880 O.2    63  GLU63      -0.2864
     31  CB        39.6250   28.6660   51.3960 C.3    63  GLU63       0.0415
     32  CG        38.1130   28.5900   51.4960 C.3    63  GLU63       0.1163
     33  CD        37.6700   28.4880   52.9590 C.2    63  GLU63       0.3649
     34  OE1       37.0720   29.5160   53.3860 O.co2  63  GLU63      -0.2457
     35  OE2       37.9730   27.4450   53.6730 O.co2  63  GLU63      -0.2457
     36  N         40.3800   37.7860   44.5040 N.3    75  TYR75      -0.1241
     37  CA        39.8680   36.7620   45.4100 C.3    75  TYR75       0.1605
     38  C         38.8230   35.8630   44.7060 C.2    75  TYR75       0.2264
     39  O         38.9330   34.6420   44.6600 O.2    75  TYR75      -0.2867
     40  CB        39.3160   37.4070   46.7380 C.3    75  TYR75       0.0534
     41  CG        38.6630   36.3710   47.6800 C.ar   75  TYR75      -0.0201
     42  CD1       39.4580   35.6430   48.6080 C.ar   75  TYR75      -0.0009
     43  CD2       37.3060   36.0580   47.5740 C.ar   75  TYR75      -0.0009
     44  CE1       38.9140   34.6710   49.4130 C.ar   75  TYR75       0.0417
     45  CE2       36.7430   35.0550   48.3730 C.ar   75  TYR75       0.0417
     46  CZ        37.5500   34.3880   49.2810 C.ar   75  TYR75       0.1957
     47  OH        37.0370   33.4640   50.1110 O.3    75  TYR75      -0.2866
     48  N         38.9950   31.9960   43.6710 N.3    79  LEU79      -0.1245
     49  CA        38.1260   31.0790   44.3860 C.3    79  LEU79       0.1561
     50  C         37.4310   30.2440   43.3270 C.2    79  LEU79       0.2260
     51  O         37.4830   29.0530   43.3820 O.2    79  LEU79      -0.2867
     52  CB        37.1410   31.7980   45.3000 C.3    79  LEU79       0.0270
     53  CG        36.3280   30.9620   46.3070 C.3    79  LEU79       0.0019
     54  CD1       37.1490   30.6100   47.5700 C.3    79  LEU79       0.0001
     55  CD2       35.1620   31.8940   46.6820 C.3    79  LEU79       0.0001
     56  N         37.4520   26.0970   42.1670 N.3    83  LEU83      -0.1245
     57  CA        36.3350   25.1440   42.1860 C.3    83  LEU83       0.1561
     58  C         36.0880   24.5850   40.7870 C.2    83  LEU83       0.2260
     59  O         35.7910   23.4130   40.6640 O.2    83  LEU83      -0.2867
     60  CB        35.0600   25.8360   42.7290 C.3    83  LEU83       0.0270
     61  CG        35.2230   26.1940   44.2150 C.3    83  LEU83       0.0019
     62  CD1       34.1420   27.2270   44.7030 C.3    83  LEU83       0.0001
     63  CD2       35.3360   24.9740   45.1440 C.3    83  LEU83       0.0001
     64  N         27.9660   22.8690   55.9670 N.3   115  THR115     -0.1203
     65  CA        29.4460   23.2680   56.1480 C.3   115  THR115      0.1994
     66  C         29.8920   24.2420   55.0750 C.2   115  THR115      0.2617
     67  O         30.4140   25.3120   55.3660 O.2   115  THR115     -0.2717
     68  CB        30.3310   22.0160   56.1810 C.3   115  THR115      0.1784
     69  OG1       29.9940   21.2620   57.3330 O.3   115  THR115     -0.2211
     70  CG2       31.9120   22.3490   56.2590 C.3   115  THR115      0.0376
     71  N         29.6720   23.8960   53.8140 N.am  116  LEU116     -0.1979
     72  CA        30.0590   24.7650   52.6810 C.3   116  LEU116      0.1596
     73  C         29.4330   26.1610   52.8020 C.2   116  LEU116      0.2287
     74  O         30.0310   27.1380   52.4860 O.2   116  LEU116     -0.2864
     75  CB        29.5420   24.1350   51.3260 C.3   116  LEU116      0.0297
     76  CG        30.3080   22.8790   50.8320 C.3   116  LEU116      0.0022
     77  CD1       29.7030   22.1750   49.5890 C.3   116  LEU116      0.0001
     78  CD2       31.9650   23.1160   50.7020 C.3   116  LEU116      0.0001
     79  N         30.6680   28.1810   55.8390 N.3   119  SER119     -0.1202
     80  CA        32.0420   28.6560   55.5200 C.3   119  SER119      0.2020
     81  C         31.9960   29.7530   54.4260 C.2   119  SER119      0.2619
     82  O         32.7930   30.6900   54.4580 O.2   119  SER119     -0.2717
     83  CB        32.9670   27.5190   55.0710 C.3   119  SER119      0.2103
     84  OG        32.9130   26.3690   55.9230 O.3   119  SER119     -0.2182
     85  N         31.0560   29.6270   53.4860 N.am  120  GLY120     -0.1956
     86  CA        30.8020   30.6620   52.4120 C.3   120  GLY120      0.1869
     87  C         30.3530   31.9820   53.0440 C.2   120  GLY120      0.2309
     88  O         30.7790   33.0330   52.6130 O.2   120  GLY120     -0.2863
     89  N         33.4610   33.4170   54.6440 N.3   123  ALA123     -0.1231
     90  CA        34.4790   33.9350   53.6340 C.3   123  ALA123      0.1694
     91  C         33.9880   35.1900   52.9630 C.2   123  ALA123      0.2591
     92  O         34.7470   36.1060   52.6700 O.2   123  ALA123     -0.2718
     93  CB        34.7930   32.8100   52.5210 C.3   123  ALA123      0.0304
     94  N         32.6980   35.2500   52.6760 N.am  124  LEU124     -0.1980
     95  CA        32.1200   36.4010   52.0320 C.3   124  LEU124      0.1596
     96  C         32.3240   37.6960   52.8790 C.2   124  LEU124      0.2287
     97  O         32.7910   38.7470   52.3840 O.2   124  LEU124     -0.2864
     98  CB        30.5780   36.1880   51.8780 C.3   124  LEU124      0.0297
     99  CG        29.9670   35.7780   50.5260 C.3   124  LEU124      0.0022
    100  CD1       28.5440   35.1050   50.6960 C.3   124  LEU124      0.0001
    101  CD2       29.9880   37.0610   49.6950 C.3   124  LEU124      0.0001
    102  N         25.2540   33.2150   50.1540 N.3   142  SER142     -0.1217
    103  CA        25.9930   32.0030   50.1730 C.3   142  SER142      0.1889
    104  C         25.2380   30.9660   49.3250 C.2   142  SER142      0.2288
    105  O         25.8380   30.2410   48.5330 O.2   142  SER142     -0.2866
    106  CB        26.3160   31.5310   51.6270 C.3   142  SER142      0.2089
    107  OG        27.2290   30.4450   51.6290 O.3   142  SER142     -0.2183
    108  N         25.8390   31.7950   45.7060 N.3   145  PHE145     -0.1227
    109  CA        27.2220   31.4180   45.2960 C.3   145  PHE145      0.1736
    110  C         27.2710   29.9420   44.9730 C.2   145  PHE145      0.2595
    111  O         27.6180   29.5720   43.8520 O.2   145  PHE145     -0.2718
    112  CB        28.2600   31.7760   46.3890 C.3   145  PHE145      0.0547
    113  CG        29.6500   31.2210   46.0720 C.ar  145  PHE145     -0.0202
    114  CD1       30.4470   31.8810   45.1660 C.ar  145  PHE145     -0.0042
    115  CD2       30.0530   29.9590   46.5580 C.ar  145  PHE145     -0.0042
    116  CE1       31.7330   31.3900   44.8280 C.ar  145  PHE145     -0.0003
    117  CE2       31.4440   29.3910   46.2010 C.ar  145  PHE145     -0.0003
    118  CZ        32.1890   30.1600   45.3140 C.ar  145  PHE145     -0.0000
    119  N         26.8360   29.0820   45.9070 N.am  146  TRP146     -0.1976
    120  CA        26.9410   27.6460   45.7060 C.3   146  TRP146      0.1640
    121  C         26.0210   27.1280   44.6270 C.2   146  TRP146      0.2290
    122  O         26.4220   26.2500   43.9010 O.2   146  TRP146     -0.2864
    123  CB        26.7180   26.8580   47.0230 C.3   146  TRP146      0.0576
    124  CG        27.8590   27.0140   47.8880 C.ar  146  TRP146      0.0006
    125  CD1       27.9610   27.7530   49.0360 C.ar  146  TRP146      0.0946
    126  CD2       29.1800   26.5000   47.6120 C.ar  146  TRP146      0.0152
    127  NE1       29.2740   27.6600   49.5470 N.ar  146  TRP146     -0.2442
    128  CE2       30.0240   26.8900   48.6990 C.ar  146  TRP146      0.0810
    129  CE3       29.6890   25.6550   46.6150 C.ar  146  TRP146      0.0012
    130  CZ2       31.3880   26.5170   48.7670 C.ar  146  TRP146      0.0191
    131  CZ3       31.0850   25.2790   46.6940 C.ar  146  TRP146      0.0001
    132  CH2       31.8600   25.6910   47.7440 C.ar  146  TRP146      0.0015
@<TRIPOS>BOND
     1    59    58    2
     2    58    57    1
     3    56    57    1
     4    57    60    1
     5    60    61    1
     6    50    51    2
     7    50    49    1
     8    48    49    1
     9   111   110    2
    10   122   121    2
    11    61    62    1
    12    61    63    1
    13    49    52    1
    14    36    37    1
    15   121   120    1
    16    39    38    2
    17    38    37    1
    18   116   114   ar
    19   116   118   ar
    20   110   109    1
    21   110   119   am
    22   114   113   ar
    23   109   108    1
    24   109   112    1
    25    52    53    1
    26   118   117   ar
    27    37    40    1
    28   120   119    1
    29   120   123    1
    30   113   112    1
    31   113   115   ar
    32   117   115   ar
    33    53    55    1
    34    53    54    1
    35    26    23    1
    36   129   131   ar
    37   129   126   ar
    38   131   132   ar
    39    40    41    1
    40    23    22    1
    41    23    24    1
    42   123   124    1
    43    25    24    2
    44    43    41   ar
    45    43    45   ar
    46   126   124   ar
    47   126   128   ar
    48    41    42   ar
    49   132   130   ar
    50    24    27   am
    51   124   125   ar
    52    45    46   ar
    53   105   104    2
    54     9    10    1
    55    42    44   ar
    56   128   130   ar
    57   128   127   ar
    58    27    28    1
    59   125   127   ar
    60    10    11    1
    61    46    44   ar
    62    46    47    1
    63   104   103    1
    64    77    76    1
    65   101    99    1
    66    12    11    2
    67    11    13   am
    68    28    29    1
    69    28    31    1
    70    29    30    2
    71   102   103    1
    72   103   106    1
    73     1     2    1
    74    99   100    1
    75    99    98    1
    76    15    16    2
    77    15    14    1
    78    13    14    1
    79    78    76    1
    80    76    75    1
    81     3     4    2
    82     3     2    1
    83    75    72    1
    84     2     5    1
    85    31    32    1
    86    14    17    1
    87    32    33    1
    88   106   107    1
    89    98    95    1
    90    95    94    1
    91    95    96    1
    92    17    18    1
    93    97    96    2
    94    86    87    1
    95    86    85    1
    96    74    73    2
    97    93    90    1
    98    88    87    2
    99    92    91    2
   100    94    91   am
   101    72    73    1
   102    72    71    1
   103     5     6    1
   104    33    34   ar
   105    33    35   ar
   106    91    90    1
   107    18    19    1
   108     6     8    1
   109     6     7    1
   110    85    81   am
   111    90    89    1
   112    71    66   am
   113    81    82    2
   114    81    80    1
   115    19    20    1
   116    21    20    1
   117    83    80    1
   118    83    84    1
   119    66    67    2
   120    66    65    1
   121    80    79    1
   122    64    65    1
   123    65    68    1
   124    68    70    1
   125    68    69    1
