@<TRIPOS>MOLECULE
tmp/2hkxA00.pdb
 127 121 0 0 0
SMALL
GASTEIGER

@<TRIPOS>ATOM
      1  N         46.2360   10.3230    7.8600 N.3    48  VAL48      -0.1245
      2  CA        45.4160    9.1170    7.8630 C.3    48  VAL48       0.1561
      3  C         46.2150    7.9990    8.5400 C.2    48  VAL48       0.2260
      4  O         47.4180    7.8630    8.3220 O.2    48  VAL48      -0.2867
      5  CB        44.9730    8.7030    6.4480 C.3    48  VAL48       0.0252
      6  CG1       44.2590    7.3540    6.4710 C.3    48  VAL48       0.0019
      7  CG2       44.0680    9.7670    5.8480 C.3    48  VAL48       0.0019
      8  N         40.7040    2.0760    9.9840 N.3    77  ILE77      -0.1231
      9  CA        41.3620    3.2460    9.4590 C.3    77  ILE77       0.1692
     10  C         40.6000    4.5190    9.8910 C.2    77  ILE77       0.2592
     11  O         39.3720    4.4880   10.1310 O.2    77  ILE77      -0.2718
     12  CB        41.6150    3.0740    7.9150 C.3    77  ILE77       0.0266
     13  CG1       42.6540    4.0690    7.3990 C.3    77  ILE77       0.0019
     14  CG2       40.3110    3.0800    7.1080 C.3    77  ILE77       0.0020
     15  CD1       43.2650    3.6980    6.0600 C.3    77  ILE77       0.0001
     16  N         41.3450    5.6110   10.0890 N.am   78  PHE78      -0.1962
     17  CA        40.7720    6.8690   10.5580 C.3    78  PHE78       0.1771
     18  C         41.6460    8.0430   10.1200 C.2    78  PHE78       0.2619
     19  O         42.6620    7.8560    9.4570 O.2    78  PHE78      -0.2715
     20  CB        40.5660    6.8580   12.0890 C.3    78  PHE78       0.0574
     21  CG        39.2660    7.5420   12.5590 C.ar   78  PHE78      -0.0200
     22  CD1       38.0190    6.9630   12.3040 C.ar   78  PHE78      -0.0042
     23  CD2       39.3090    8.7560   13.2360 C.ar   78  PHE78      -0.0042
     24  CE1       36.8360    7.5810   12.7100 C.ar   78  PHE78      -0.0003
     25  CE2       38.1240    9.3980   13.6640 C.ar   78  PHE78      -0.0003
     26  CZ        36.8880    8.8080   13.3960 C.ar   78  PHE78      -0.0000
     27  N         41.2220    9.2540   10.4630 N.am   79  CYS79      -0.1968
     28  CA        41.9820   10.4540   10.1730 C.3    79  CYS79       0.1712
     29  C         42.2180   11.2440   11.4690 C.2    79  CYS79       0.2296
     30  O         41.8190   10.8070   12.5730 O.2    79  CYS79      -0.2864
     31  CB        41.2310   11.3010    9.1370 C.3    79  CYS79       0.0983
     32  SG        39.6920   12.0670    9.8070 S.3    79  CYS79      -0.0798
     33  N         41.6870   14.8300   11.2980 N.3    81  HIS81      -0.1226
     34  CA        41.0370   16.1280   11.1410 C.3    81  HIS81       0.1752
     35  C         39.6280   16.1100   11.6880 C.2    81  HIS81       0.2597
     36  O         38.7030   16.6400   11.0770 O.2    81  HIS81      -0.2718
     37  CB        41.0350   16.5750    9.6890 C.3    81  HIS81       0.0759
     38  CG        40.6360   15.4910    8.7630 C.ar   81  HIS81       0.0818
     39  ND1       41.5540   14.6750    8.1370 N.ar   81  HIS81      -0.2268
     40  CD2       39.4180   15.0310    8.4130 C.ar   81  HIS81       0.1154
     41  CE1       40.9140   13.7890    7.3980 C.ar   81  HIS81       0.1986
     42  NE2       39.6150   13.9760    7.5590 N.ar   81  HIS81      -0.2212
     43  N         39.4940   15.5190   12.8700 N.am   82  THR82      -0.1939
     44  CA        38.2210   15.3910   13.5210 C.3    82  THR82       0.2028
     45  C         38.2960   16.0910   14.8840 C.2    82  THR82       0.2642
     46  O         39.3760   16.1970   15.4640 O.2    82  THR82      -0.2714
     47  CB        37.8710   13.8780   13.6120 C.3    82  THR82       0.1808
     48  OG1       36.6680   13.6200   12.8940 O.3    82  THR82      -0.2208
     49  CG2       37.7850   13.3770   15.0180 C.3    82  THR82       0.0379
     50  N         37.1580   16.5750   15.3780 N.am   83  ARG83      -0.1977
     51  CA        37.0410   17.1630   16.7370 C.3    83  ARG83       0.1597
     52  C         37.1530   16.1480   17.8660 C.2    83  ARG83       0.2287
     53  O         36.9440   16.4730   19.0520 O.2    83  ARG83      -0.2864
     54  CB        35.6910   17.8550   16.8840 C.3    83  ARG83       0.0334
     55  CG        34.5330   16.8920   17.2270 C.3    83  ARG83       0.0492
     56  CD        33.1870   17.5790   17.0850 C.3    83  ARG83       0.2205
     57  NE        32.8860   17.6120   15.6600 N.pl3  83  ARG83      -0.0865
     58  CZ        32.1920   18.5460   15.0200 C.cat  83  ARG83       0.5346
     59  NH1       31.6820   19.5910   15.6690 N.pl3  83  ARG83       0.1354
     60  NH2       32.0110   18.3990   13.7250 N.pl3  83  ARG83       0.1354
     61  N         48.0680   13.2550    4.8970 N.3    99  ILE99      -0.1245
     62  CA        46.9360   13.1130    3.9390 C.3    99  ILE99       0.1561
     63  C         47.3350   13.1910    2.4550 C.2    99  ILE99       0.2260
     64  O         46.8640   12.3800    1.6580 O.2    99  ILE99      -0.2867
     65  CB        45.7260   14.0730    4.1890 C.3    99  ILE99       0.0252
     66  CG1       46.1820   15.5010    4.5230 C.3    99  ILE99       0.0019
     67  CG2       44.7850   13.4980    5.2340 C.3    99  ILE99       0.0019
     68  CD1       45.2960   16.6100    3.9020 C.3    99  ILE99       0.0001
     69  N         48.6520    9.9110    1.4130 N.3   102  PHE102     -0.1227
     70  CA        47.5370    8.9540    1.2880 C.3   102  PHE102      0.1736
     71  C         46.7450    9.1220    0.0000 C.2   102  PHE102      0.2595
     72  O         46.3090    8.1500   -0.6130 O.2   102  PHE102     -0.2718
     73  CB        46.5830    9.0480    2.4650 C.3   102  PHE102      0.0547
     74  CG        45.6250    7.9090    2.5290 C.ar  102  PHE102     -0.0202
     75  CD1       46.0650    6.6390    2.8860 C.ar  102  PHE102     -0.0042
     76  CD2       44.2900    8.0900    2.2110 C.ar  102  PHE102     -0.0042
     77  CE1       45.1980    5.5680    2.9290 C.ar  102  PHE102     -0.0003
     78  CE2       43.4050    7.0230    2.2620 C.ar  102  PHE102     -0.0003
     79  CZ        43.8600    5.7620    2.6280 C.ar  102  PHE102     -0.0000
     80  N         46.5770   10.3700   -0.4060 N.am  103  GLN103     -0.1979
     81  CA        45.8860   10.6890   -1.6410 C.3   103  GLN103      0.1601
     82  C         46.6050   10.1190   -2.8680 C.2   103  GLN103      0.2287
     83  O         45.9710    9.7730   -3.8610 O.2   103  GLN103     -0.2864
     84  CB        45.6740   12.1980   -1.7250 C.3   103  GLN103      0.0394
     85  CG        44.7740   12.6980   -0.5860 C.3   103  GLN103      0.0908
     86  CD        44.7290   14.2040   -0.4720 C.2   103  GLN103      0.2608
     87  OE1       45.6760   14.9100   -0.8540 O.2   103  GLN103     -0.2717
     88  NE2       43.6200   14.7120    0.0520 N.am  103  GLN103     -0.0878
     89  N         38.1920    2.7270    1.6520 N.3   116  MET116     -0.1245
     90  CA        37.9310    3.9900    2.3000 C.3   116  MET116      0.1570
     91  C         36.4780    4.4300    2.0630 C.2   116  MET116      0.2261
     92  O         35.8920    5.0560    2.9380 O.2   116  MET116     -0.2867
     93  CB        38.9900    5.0550    1.9460 C.3   116  MET116      0.0387
     94  CG        38.6260    6.0180    0.8520 C.3   116  MET116      0.0595
     95  SD        39.5770    7.5630    0.9150 S.3   116  MET116     -0.1393
     96  CE        39.5240    7.8460    2.6940 C.3   116  MET116      0.0692
     97  N         34.1560    2.1030    4.4510 N.3   119  VAL119     -0.1231
     98  CA        34.3360    2.5600    5.8140 C.3   119  VAL119      0.1692
     99  C         33.5800    3.8790    6.0610 C.2   119  VAL119      0.2591
    100  O         32.8590    4.0080    7.0520 O.2   119  VAL119     -0.2718
    101  CB        35.8580    2.6540    6.1450 C.3   119  VAL119      0.0266
    102  CG1       36.1570    3.5760    7.3450 C.3   119  VAL119      0.0020
    103  CG2       36.4390    1.2330    6.3460 C.3   119  VAL119      0.0020
    104  N         33.7310    4.8400    5.1610 N.am  120  LEU120     -0.1980
    105  CA        32.9520    6.0690    5.2400 C.3   120  LEU120      0.1596
    106  C         31.4320    5.8300    5.1930 C.2   120  LEU120      0.2287
    107  O         30.6860    6.4040    5.9890 O.2   120  LEU120     -0.2864
    108  CB        33.4010    7.0450    4.1710 C.3   120  LEU120      0.0297
    109  CG        34.8290    7.5550    4.3600 C.3   120  LEU120      0.0022
    110  CD1       35.3970    8.0740    3.0070 C.3   120  LEU120      0.0001
    111  CD2       34.8500    8.6290    5.4580 C.3   120  LEU120      0.0001
    112  N         30.4180    4.3640    8.5750 N.3   123  LEU123     -0.1245
    113  CA        30.5910    5.4180    9.5500 C.3   123  LEU123      0.1561
    114  C         29.3650    6.3220    9.4600 C.2   123  LEU123      0.2260
    115  O         28.7710    6.6840   10.4820 O.2   123  LEU123     -0.2867
    116  CB        31.8670    6.1970    9.2320 C.3   123  LEU123      0.0270
    117  CG        32.7870    6.8270   10.2920 C.3   123  LEU123      0.0019
    118  CD1       33.0340    8.2830    9.9240 C.3   123  LEU123      0.0001
    119  CD2       32.3040    6.7200   11.7800 C.3   123  LEU123      0.0001
    120  N         26.8460    6.8130   12.6000 N.3   127  LEU127     -0.1245
    121  CA        26.4380    8.1350   13.1200 C.3   127  LEU127      0.1561
    122  C         24.9270    8.4040   13.0430 C.2   127  LEU127      0.2260
    123  O         24.3850    8.9710   13.9790 O.2   127  LEU127     -0.2867
    124  CB        27.1920    9.2890   12.4530 C.3   127  LEU127      0.0270
    125  CG        28.7240    9.2490   12.6120 C.3   127  LEU127      0.0019
    126  CD1       29.3440   10.4440   11.8850 C.3   127  LEU127      0.0001
    127  CD2       29.1740    9.1960   14.0930 C.3   127  LEU127      0.0001
@<TRIPOS>BOND
     1    83    82    2
     2    82    81    1
     3    84    81    1
     4    84    85    1
     5    81    80    1
     6    87    86    2
     7    72    71    2
     8    85    86    1
     9    86    88   am
    10    80    71   am
    11    71    70    1
    12    94    95    1
    13    94    93    1
    14    95    96    1
    15    70    69    1
    16    70    73    1
    17    89    90    1
    18    64    63    2
    19    93    90    1
    20    91    90    1
    21    91    92    2
    22    76    78   ar
    23    76    74   ar
    24    78    79   ar
    25    63    62    1
    26    73    74    1
    27    74    75   ar
    28    79    77   ar
    29    75    77   ar
    30   110   109    1
    31    68    66    1
    32    62    65    1
    33    62    61    1
    34   108   109    1
    35   108   105    1
    36    65    66    1
    37    65    67    1
    38   109   111    1
    39    97    98    1
    40   104   105    1
    41   104    99   am
    42   106   105    1
    43   106   107    2
    44    98    99    1
    45    98   101    1
    46     7     5    1
    47    15    13    1
    48    99   100    2
    49   101   103    1
    50   101   102    1
    51     5     6    1
    52     5     2    1
    53    14    12    1
    54    41    42   ar
    55    41    39   ar
    56    13    12    1
    57    42    40   ar
    58     1     2    1
    59     2     3    1
    60    12     9    1
    61    39    38   ar
    62     4     3    2
    63    40    38   ar
    64   112   113    1
    65    38    37    1
    66    31    32    1
    67    31    28    1
    68   116   113    1
    69   116   117    1
    70    19    18    2
    71     9    10    1
    72     9     8    1
    73   114   113    1
    74   114   115    2
    75    37    34    1
    76    10    16   am
    77    10    11    2
    78   118   117    1
    79    16    17    1
    80    18    27   am
    81    18    17    1
    82    28    27    1
    83    28    29    1
    84   117   119    1
    85    17    20    1
    86    36    35    2
    87    34    33    1
    88    34    35    1
    89    29    30    2
    90    35    43   am
    91   126   125    1
    92    20    21    1
    93    22    21   ar
    94    22    24   ar
    95   124   125    1
    96   124   121    1
    97    21    23   ar
    98   120   121    1
    99   125   127    1
   100    24    26   ar
   101    43    44    1
   102    48    47    1
   103   122   121    1
   104   122   123    2
   105    23    25   ar
   106    26    25   ar
   107    44    47    1
   108    44    45    1
   109    47    49    1
   110    60    58    1
   111    45    50   am
   112    45    46    2
   113    58    57    2
   114    58    59    1
   115    50    51    1
   116    57    56    1
   117    51    54    1
   118    51    52    1
   119    54    55    1
   120    56    55    1
   121    52    53    2
