@<TRIPOS>MOLECULE
tmp/2hkzA00.pdb
 84 85 0 0 0
SMALL
GASTEIGER

@<TRIPOS>ATOM
      1  N         43.9400   38.8030    3.3830 N.3    19  ALA19      -0.1231
      2  CA        45.0090   38.2230    4.1870 C.3    19  ALA19       0.1694
      3  C         45.5130   36.9680    3.4940 C.2    19  ALA19       0.2591
      4  O         46.5590   36.4240    3.8460 O.2    19  ALA19      -0.2718
      5  CB        44.4930   37.8900    5.5860 C.3    19  ALA19       0.0304
      6  N         44.7440   36.5220    2.5060 N.am   20  LEU20      -0.1980
      7  CA        45.0540   35.3380    1.7090 C.3    20  LEU20       0.1596
      8  C         44.9440   35.7130    0.2380 C.2    20  LEU20       0.2287
      9  O         44.2690   36.6760   -0.1150 O.2    20  LEU20      -0.2864
     10  CB        44.0530   34.2150    1.9960 C.3    20  LEU20       0.0297
     11  CG        44.0970   33.4560    3.3160 C.3    20  LEU20       0.0022
     12  CD1       42.8430   32.6110    3.4450 C.3    20  LEU20       0.0001
     13  CD2       45.3340   32.5780    3.3650 C.3    20  LEU20       0.0001
     14  N         32.9870   34.0710   13.8770 N.3    79  TYR79      -0.1228
     15  CA        34.1310   34.8920   13.5600 C.3    79  TYR79       0.1721
     16  C         35.3980   34.0880   13.2870 C.2    79  TYR79       0.2437
     17  O         36.0330   33.5850   14.2140 O.2    79  TYR79      -0.2733
     18  CB        34.3840   35.8790   14.7040 C.3    79  TYR79       0.0547
     19  CG        35.1720   37.0920   14.2690 C.ar   79  TYR79      -0.0200
     20  CD1       34.5730   38.3440   14.1950 C.ar   79  TYR79      -0.0009
     21  CD2       36.5040   36.9800   13.8940 C.ar   79  TYR79      -0.0009
     22  CE1       35.2860   39.4580   13.7550 C.ar   79  TYR79       0.0417
     23  CE2       37.2240   38.0840   13.4510 C.ar   79  TYR79       0.0417
     24  CZ        36.6090   39.3170   13.3830 C.ar   79  TYR79       0.1957
     25  OH        37.3160   40.4000   12.9250 O.3    79  TYR79      -0.2866
     26  N         35.7830   33.9610   12.0060 N.am   80  PRO80      -0.2718
     27  CA        36.9980   33.2060   11.6850 C.3    80  PRO80       0.1535
     28  C         38.1320   33.8270   12.5030 C.2    80  PRO80       0.2599
     29  O         38.3430   35.0420   12.4580 O.2    80  PRO80      -0.2715
     30  CB        37.1670   33.4430   10.1830 C.3    80  PRO80       0.0310
     31  CG        35.7450   33.6960    9.7130 C.3    80  PRO80       0.0237
     32  CD        35.2160   34.5850   10.7980 C.3    80  PRO80       0.0939
     33  N         38.8430   32.9970   13.2610 N.am   81  PHE81      -0.1960
     34  CA        39.9230   33.4780   14.1130 C.3    81  PHE81       0.1771
     35  C         40.9790   32.3810   14.2150 C.2    81  PHE81       0.2619
     36  O         40.7460   31.3490   14.8350 O.2    81  PHE81      -0.2715
     37  CB        39.3630   33.7860   15.5030 C.3    81  PHE81       0.0574
     38  CG        40.0950   34.8700   16.2300 C.ar   81  PHE81      -0.0200
     39  CD1       40.1240   36.1640   15.7240 C.ar   81  PHE81      -0.0042
     40  CD2       40.7140   34.6100   17.4510 C.ar   81  PHE81      -0.0042
     41  CE1       40.7530   37.1870   16.4220 C.ar   81  PHE81      -0.0003
     42  CE2       41.3480   35.6300   18.1580 C.ar   81  PHE81      -0.0003
     43  CZ        41.3670   36.9170   17.6460 C.ar   81  PHE81      -0.0000
     44  N         42.1390   32.6080   13.6220 N.am   82  ALA82      -0.1977
     45  CA        43.1960   31.6050   13.6330 C.3    82  ALA82       0.1597
     46  C         44.1630   31.6170   14.8220 C.2    82  ALA82       0.2287
     47  O         44.9300   30.6770   14.9940 O.2    82  ALA82      -0.2864
     48  CB        43.9920   31.7020   12.3330 C.3    82  ALA82       0.0319
     49  N         36.0740   34.9160    5.6380 N.3   117  PHE117     -0.1227
     50  CA        37.3250   34.2460    5.9470 C.3   117  PHE117      0.1736
     51  C         38.3950   34.7470    4.9790 C.2   117  PHE117      0.2596
     52  O         38.1070   34.9900    3.8050 O.2   117  PHE117     -0.2718
     53  CB        37.1630   32.7350    5.7730 C.3   117  PHE117      0.0547
     54  CG        38.4450   31.9600    5.9440 C.ar  117  PHE117     -0.0202
     55  CD1       39.0010   31.7680    7.2050 C.ar  117  PHE117     -0.0042
     56  CD2       39.1020   31.4240    4.8350 C.ar  117  PHE117     -0.0042
     57  CE1       40.1960   31.0520    7.3660 C.ar  117  PHE117     -0.0003
     58  CE2       40.2960   30.7080    4.9830 C.ar  117  PHE117     -0.0003
     59  CZ        40.8430   30.5220    6.2570 C.ar  117  PHE117     -0.0000
     60  N         39.6190   34.9240    5.4700 N.am  118  GLY118     -0.1942
     61  CA        40.6960   35.3600    4.5970 C.3   118  GLY118      0.2014
     62  C         41.0320   36.8360    4.4710 C.2   118  GLY118      0.2638
     63  O         41.8850   37.1980    3.6600 O.2   118  GLY118     -0.2714
     64  N         40.3810   37.6970    5.2440 N.am  119  TYR119     -0.1973
     65  CA        40.6760   39.1270    5.1640 C.3   119  TYR119      0.1639
     66  C         41.0280   39.6880    6.5280 C.2   119  TYR119      0.2290
     67  O         40.6270   39.1430    7.5590 O.2   119  TYR119     -0.2864
     68  CB        39.4730   39.9310    4.6480 C.3   119  TYR119      0.0560
     69  CG        38.8790   39.4950    3.3290 C.ar  119  TYR119     -0.0198
     70  CD1       38.0090   38.4080    3.2590 C.ar  119  TYR119     -0.0009
     71  CD2       39.1560   40.1960    2.1520 C.ar  119  TYR119     -0.0009
     72  CE1       37.4210   38.0310    2.0510 C.ar  119  TYR119      0.0417
     73  CE2       38.5780   39.8280    0.9420 C.ar  119  TYR119      0.0417
     74  CZ        37.7100   38.7440    0.8990 C.ar  119  TYR119      0.1957
     75  OH        37.1290   38.3790   -0.2900 O.3   119  TYR119     -0.2866
     76  N         40.4550   42.3260    9.3610 N.3   121  LYS121     -0.1245
     77  CA        39.2530   43.0590    9.7200 C.3   121  LYS121      0.1561
     78  C         39.3280   43.9000   10.9790 C.2   121  LYS121      0.2260
     79  O         39.7970   43.4500   12.0280 O.2   121  LYS121     -0.2867
     80  CB        38.0650   42.1090    9.8880 C.3   121  LYS121      0.0271
     81  CG        37.4290   41.6240    8.6010 C.3   121  LYS121      0.0035
     82  CD        37.8870   40.2330    8.2650 C.3   121  LYS121      0.0206
     83  CE        37.4410   39.2320    9.3110 C.3   121  LYS121      0.1093
     84  NZ        38.1110   37.9270    9.0700 N.3   121  LYS121     -0.1314
@<TRIPOS>BOND
     1    75    74    1
     2     9     8    2
     3     8     7    1
     4    74    73   ar
     5    74    72   ar
     6    73    71   ar
     7     7    10    1
     8     7     6    1
     9    10    11    1
    10    72    70   ar
    11    71    69   ar
    12     6     3   am
    13    70    69   ar
    14    11    13    1
    15    11    12    1
    16    69    68    1
    17     1     2    1
    18     3     4    2
    19     3     2    1
    20    63    62    2
    21    52    51    2
    22     2     5    1
    23    62    61    1
    24    62    64   am
    25    61    60    1
    26    68    65    1
    27    56    58   ar
    28    56    54   ar
    29    51    60   am
    30    51    50    1
    31    58    59   ar
    32    65    64    1
    33    65    66    1
    34    49    50    1
    35    53    54    1
    36    53    50    1
    37    54    55   ar
    38    59    57   ar
    39    66    67    2
    40    55    57   ar
    41    82    81    1
    42    82    83    1
    43    81    80    1
    44    84    83    1
    45    76    77    1
    46    31    30    1
    47    31    32    1
    48    77    80    1
    49    77    78    1
    50    30    27    1
    51    32    26    1
    52    78    79    2
    53    27    26    1
    54    27    28    1
    55    26    16   am
    56    48    45    1
    57    29    28    2
    58    28    33   am
    59    25    24    1
    60    33    34    1
    61    16    15    1
    62    16    17    2
    63    24    23   ar
    64    24    22   ar
    65    23    21   ar
    66    15    14    1
    67    15    18    1
    68    44    45    1
    69    44    35   am
    70    45    46    1
    71    22    20   ar
    72    21    19   ar
    73    34    35    1
    74    34    37    1
    75    20    19   ar
    76    35    36    2
    77    19    18    1
    78    46    47    2
    79    37    38    1
    80    39    38   ar
    81    39    41   ar
    82    38    40   ar
    83    41    43   ar
    84    40    42   ar
    85    43    42   ar
