@<TRIPOS>MOLECULE
tmp/2hl2A00.pdb
 148 147 0 0 0
SMALL
GASTEIGER

@<TRIPOS>ATOM
      1  N         29.5640    8.4130   -5.7170 N.3    19  ALA19      -0.1231
      2  CA        30.0810    7.5710   -4.6400 C.3    19  ALA19       0.1694
      3  C         30.9130    6.4520   -5.2490 C.2    19  ALA19       0.2591
      4  O         31.3500    5.5410   -4.5500 O.2    19  ALA19      -0.2718
      5  CB        28.9250    6.9790   -3.8280 C.3    19  ALA19       0.0304
      6  N         31.1100    6.5390   -6.5630 N.am   20  LEU20      -0.1980
      7  CA        31.8650    5.5630   -7.3420 C.3    20  LEU20       0.1596
      8  C         32.6020    6.2800   -8.4570 C.2    20  LEU20       0.2287
      9  O         32.1330    7.2970   -8.9710 O.2    20  LEU20      -0.2864
     10  CB        30.9240    4.5350   -7.9810 C.3    20  LEU20       0.0297
     11  CG        30.4810    3.3110   -7.1850 C.3    20  LEU20       0.0022
     12  CD1       29.2270    2.7290   -7.8070 C.3    20  LEU20       0.0001
     13  CD2       31.6060    2.2900   -7.1560 C.3    20  LEU20       0.0001
     14  N         17.2630   -2.2320   -2.6020 N.3    43  ILE43      -0.1231
     15  CA        17.9310   -3.4700   -2.9770 C.3    43  ILE43       0.1692
     16  C         19.4460   -3.5190   -2.8480 C.2    43  ILE43       0.2593
     17  O         20.1580   -2.6350   -3.3360 O.2    43  ILE43      -0.2718
     18  CB        17.5680   -3.8300   -4.4200 C.3    43  ILE43       0.0266
     19  CG1       16.0460   -3.9680   -4.5380 C.3    43  ILE43       0.0019
     20  CG2       18.2950   -5.0960   -4.8420 C.3    43  ILE43       0.0020
     21  CD1       15.5580   -4.2670   -5.9320 C.3    43  ILE43       0.0001
     22  N         19.9250   -4.5680   -2.1820 N.am   44  SER44      -0.1938
     23  CA        21.3590   -4.8040   -2.0030 C.3    44  SER44       0.2055
     24  C         21.6730   -6.0500   -2.8080 C.2    44  SER44       0.2642
     25  O         21.3090   -7.1500   -2.4030 O.2    44  SER44      -0.2714
     26  CB        21.7230   -5.0770   -0.5330 C.3    44  SER44       0.2130
     27  OG        21.8110   -3.8970    0.2420 O.3    44  SER44      -0.2179
     28  N         22.3200   -5.8790   -3.9550 N.am   45  VAL45      -0.1977
     29  CA        22.6850   -7.0130   -4.7890 C.3    45  VAL45       0.1596
     30  C         23.9100   -7.6270   -4.1620 C.2    45  VAL45       0.2287
     31  O         24.8910   -6.9300   -3.9230 O.2    45  VAL45      -0.2864
     32  CB        23.0500   -6.5790   -6.2010 C.3    45  VAL45       0.0276
     33  CG1       23.3870   -7.8080   -7.0370 C.3    45  VAL45       0.0022
     34  CG2       21.9000   -5.7800   -6.8130 C.3    45  VAL45       0.0022
     35  N         18.6260    1.7040   -5.3320 N.3    80  PRO80      -0.2102
     36  CA        19.9090    1.0300   -5.1470 C.3    80  PRO80       0.1504
     37  C         20.4050    1.4270   -3.7570 C.2    80  PRO80       0.2576
     38  O         20.6860    2.6020   -3.5020 O.2    80  PRO80      -0.2718
     39  CB        20.7730    1.6140   -6.2720 C.3    80  PRO80       0.0282
     40  CG        19.7690    1.9770   -7.3350 C.3    80  PRO80       0.0208
     41  CD        18.6710    2.5990   -6.5040 C.3    80  PRO80       0.0893
     42  N         20.5070    0.4470   -2.8660 N.am   81  PHE81      -0.1963
     43  CA        20.9160    0.6990   -1.4870 C.3    81  PHE81       0.1771
     44  C         21.9430   -0.3490   -1.0990 C.2    81  PHE81       0.2619
     45  O         21.6190   -1.5260   -1.0190 O.2    81  PHE81      -0.2715
     46  CB        19.6800    0.5830   -0.5960 C.3    81  PHE81       0.0574
     47  CG        19.8900    1.0450    0.8060 C.ar   81  PHE81      -0.0200
     48  CD1       20.1080    2.3900    1.0820 C.ar   81  PHE81      -0.0042
     49  CD2       19.8200    0.1410    1.8620 C.ar   81  PHE81      -0.0042
     50  CE1       20.2470    2.8270    2.3890 C.ar   81  PHE81      -0.0003
     51  CE2       19.9570    0.5650    3.1780 C.ar   81  PHE81      -0.0003
     52  CZ        20.1690    1.9070    3.4450 C.ar   81  PHE81      -0.0000
     53  N         23.1760    0.0570   -0.8430 N.am   82  ALA82      -0.1963
     54  CA        24.2090   -0.9260   -0.5120 C.3    82  ALA82       0.1728
     55  C         24.4970   -1.0830    0.9840 C.2    82  ALA82       0.2616
     56  O         25.6610   -1.0910    1.3990 O.2    82  ALA82      -0.2715
     57  CB        25.4980   -0.5780   -1.2600 C.3    82  ALA82       0.0334
     58  N         23.4460   -1.2310    1.7870 N.am   83  HIS83      -0.1973
     59  CA        23.6050   -1.3540    3.2330 C.3    83  HIS83       0.1656
     60  C         22.7810   -2.4720    3.8670 C.2    83  HIS83       0.2291
     61  O         22.6530   -2.5170    5.0830 O.2    83  HIS83      -0.2864
     62  CB        23.2290   -0.0350    3.9110 C.3    83  HIS83       0.0771
     63  CG        23.9730    1.1570    3.3920 C.ar   83  HIS83       0.0820
     64  ND1       25.3190    1.3530    3.6160 N.ar   83  HIS83      -0.2267
     65  CD2       23.5550    2.2190    2.6620 C.ar   83  HIS83       0.1154
     66  CE1       25.6960    2.4840    3.0460 C.ar   83  HIS83       0.1986
     67  NE2       24.6440    3.0300    2.4600 N.ar   83  HIS83      -0.2212
     68  N         28.2760   -7.6070   -0.5830 N.3    88  LEU88      -0.1231
     69  CA        27.7450   -6.9350   -1.7600 C.3    88  LEU88       0.1693
     70  C         28.3650   -7.4510   -3.0480 C.2    88  LEU88       0.2591
     71  O         29.4420   -8.0430   -3.0440 O.2    88  LEU88      -0.2718
     72  CB        27.9760   -5.4250   -1.6530 C.3    88  LEU88       0.0284
     73  CG        27.2470   -4.7170   -0.5110 C.3    88  LEU88       0.0019
     74  CD1       27.6710   -3.2540   -0.4660 C.3    88  LEU88       0.0001
     75  CD2       25.7400   -4.8600   -0.7010 C.3    88  LEU88       0.0001
     76  N         27.6740   -7.2210   -4.1560 N.am   89  ALA89      -0.1980
     77  CA        28.1650   -7.6580   -5.4480 C.3    89  ALA89       0.1597
     78  C         28.9700   -6.5390   -6.1080 C.2    89  ALA89       0.2287
     79  O         28.8430   -5.3680   -5.7500 O.2    89  ALA89      -0.2864
     80  CB        26.9920   -8.0680   -6.3400 C.3    89  ALA89       0.0319
     81  N         30.0970   -3.6850   -8.4650 N.3    91  PRO91      -0.2116
     82  CA        29.2640   -2.6180   -9.0260 C.3    91  PRO91       0.1372
     83  C         28.7150   -2.8390  -10.4320 C.2    91  PRO91       0.2244
     84  O         27.7050   -2.2490  -10.7910 O.2    91  PRO91      -0.2868
     85  CB        30.1790   -1.4010   -8.9600 C.3    91  PRO91       0.0268
     86  CG        30.9740   -1.6650   -7.7290 C.3    91  PRO91       0.0207
     87  CD        31.3360   -3.1280   -7.9000 C.3    91  PRO91       0.0892
     88  N         25.8780   -5.6620   -9.8610 N.3    94  ALA94      -0.1245
     89  CA        24.8350   -5.0740   -9.0320 C.3    94  ALA94       0.1562
     90  C         23.9480   -4.2070   -9.9030 C.2    94  ALA94       0.2260
     91  O         22.7210   -4.2690   -9.8120 O.2    94  ALA94      -0.2867
     92  CB        25.4570   -4.2390   -7.9210 C.3    94  ALA94       0.0290
     93  N         19.9270   -4.8630  -11.1720 N.3    98  LEU98      -0.1245
     94  CA        19.0010   -3.8120  -10.8090 C.3    98  LEU98       0.1561
     95  C         18.1760   -3.3510  -11.9970 C.2    98  LEU98       0.2260
     96  O         16.9900   -3.0500  -11.8620 O.2    98  LEU98      -0.2867
     97  CB        19.7580   -2.6320  -10.2100 C.3    98  LEU98       0.0270
     98  CG        20.1090   -2.7750   -8.7320 C.3    98  LEU98       0.0019
     99  CD1       20.7420   -1.4870   -8.2790 C.3    98  LEU98       0.0001
    100  CD2       18.8680   -3.0600   -7.9020 C.3    98  LEU98       0.0001
    101  N         22.1220    4.9230   -9.8850 N.3   117  PHE117     -0.1227
    102  CA        23.1090    4.0300   -9.2880 C.3   117  PHE117      0.1736
    103  C         24.4950    4.6710   -9.1940 C.2   117  PHE117      0.2596
    104  O         24.9540    5.2870  -10.1470 O.2   117  PHE117     -0.2718
    105  CB        23.2070    2.7700  -10.1520 C.3   117  PHE117      0.0547
    106  CG        24.0700    1.6870   -9.5740 C.ar  117  PHE117     -0.0202
    107  CD1       23.5030    0.6300   -8.8780 C.ar  117  PHE117     -0.0042
    108  CD2       25.4490    1.7010   -9.7540 C.ar  117  PHE117     -0.0042
    109  CE1       24.2960   -0.3990   -8.3750 C.ar  117  PHE117     -0.0003
    110  CE2       26.2560    0.6750   -9.2530 C.ar  117  PHE117     -0.0003
    111  CZ        25.6780   -0.3760   -8.5650 C.ar  117  PHE117     -0.0000
    112  N         25.1510    4.5190   -8.0470 N.am  118  GLY118     -0.1942
    113  CA        26.4970    5.0410   -7.8850 C.3   118  GLY118      0.2014
    114  C         26.6440    6.4610   -7.3910 C.2   118  GLY118      0.2639
    115  O         27.7160    7.0470   -7.5170 O.2   118  GLY118     -0.2714
    116  N         25.5740    7.0100   -6.8230 N.am  119  TYR119     -0.1959
    117  CA        25.5780    8.3780   -6.3080 C.3   119  TYR119      0.1771
    118  C         25.1470    8.4920   -4.8530 C.2   119  TYR119      0.2620
    119  O         24.3590    7.6970   -4.3580 O.2   119  TYR119     -0.2715
    120  CB        24.6420    9.2720   -7.1320 C.3   119  TYR119      0.0574
    121  CG        25.1090    9.5590   -8.5320 C.ar  119  TYR119     -0.0198
    122  CD1       24.7750    8.7110   -9.5900 C.ar  119  TYR119     -0.0009
    123  CD2       25.9010   10.6760   -8.8040 C.ar  119  TYR119     -0.0009
    124  CE1       25.2190    8.9670  -10.8880 C.ar  119  TYR119      0.0417
    125  CE2       26.3520   10.9400  -10.0990 C.ar  119  TYR119      0.0417
    126  CZ        26.0080   10.0810  -11.1360 C.ar  119  TYR119      0.1957
    127  OH        26.4590   10.3370  -12.4180 O.3   119  TYR119     -0.2866
    128  N         25.6820    9.4920   -4.1670 N.am  120  TYR120     -0.1960
    129  CA        25.2870    9.7540   -2.7930 C.3   120  TYR120      0.1771
    130  C         23.9960   10.5310   -3.0210 C.2   120  TYR120      0.2619
    131  O         23.9940   11.5270   -3.7390 O.2   120  TYR120     -0.2715
    132  CB        26.3060   10.6600   -2.0720 C.3   120  TYR120      0.0574
    133  CG        27.6200    9.9940   -1.7160 C.ar  120  TYR120     -0.0198
    134  CD1       27.6840    9.0000   -0.7410 C.ar  120  TYR120     -0.0009
    135  CD2       28.7900   10.3310   -2.3840 C.ar  120  TYR120     -0.0009
    136  CE1       28.8810    8.3550   -0.4450 C.ar  120  TYR120      0.0417
    137  CE2       29.9940    9.6930   -2.0990 C.ar  120  TYR120      0.0417
    138  CZ        30.0360    8.7050   -1.1340 C.ar  120  TYR120      0.1957
    139  OH        31.2270    8.0550   -0.8880 O.3   120  TYR120     -0.2866
    140  N         22.8920   10.0630   -2.4630 N.am  121  LYS121     -0.1977
    141  CA        21.6450   10.7780   -2.6290 C.3   121  LYS121      0.1596
    142  C         21.0080   11.0630   -1.2840 C.2   121  LYS121      0.2287
    143  O         21.0440   10.2360   -0.3660 O.2   121  LYS121     -0.2864
    144  CB        20.6260    9.9940   -3.4800 C.3   121  LYS121      0.0298
    145  CG        20.8970    9.9210   -4.9770 C.3   121  LYS121      0.0038
    146  CD        21.6720    8.6640   -5.3440 C.3   121  LYS121      0.0206
    147  CE        20.8800    7.3910   -5.0420 C.3   121  LYS121      0.1093
    148  NZ        21.6970    6.1480   -5.1880 N.3   121  LYS121     -0.1314
@<TRIPOS>BOND
     1   127   126    1
     2    95    96    2
     3    95    94    1
     4    93    94    1
     5   126   124   ar
     6   126   125   ar
     7   124   122   ar
     8    94    97    1
     9    84    83    2
    10    83    82    1
    11    97    98    1
    12   105   106    1
    13   105   102    1
    14   104   103    2
    15   125   123   ar
    16    90    91    2
    17    90    89    1
    18   101   102    1
    19    88    89    1
    20   108   106   ar
    21   108   110   ar
    22   122   121   ar
    23   106   107   ar
    24   102   103    1
    25   110   111   ar
    26   103   112   am
    27    89    92    1
    28    82    85    1
    29    82    81    1
    30     9     8    2
    31    85    86    1
    32   107   109   ar
    33   123   121   ar
    34    98    99    1
    35    98   100    1
    36   111   109   ar
    37   121   120    1
    38    81    87    1
    39     8     7    1
    40   112   113    1
    41    10     7    1
    42    10    11    1
    43    87    86    1
    44   113   114    1
    45    12    11    1
    46   115   114    2
    47   114   116   am
    48     7     6    1
    49    40    41    1
    50    40    39    1
    51    11    13    1
    52   120   117    1
    53    33    32    1
    54   116   117    1
    55    34    32    1
    56     6     3   am
    57    41    35    1
    58    80    77    1
    59   117   118    1
    60    39    36    1
    61    32    29    1
    62    78    79    2
    63    78    77    1
    64    21    19    1
    65     1     2    1
    66    77    76    1
    67   146   147    1
    68   146   145    1
    69    35    36    1
    70     3     2    1
    71     3     4    2
    72   148   147    1
    73    36    37    1
    74   145   144    1
    75   118   119    2
    76   118   128   am
    77    20    18    1
    78    29    30    1
    79    29    28    1
    80     2     5    1
    81    19    18    1
    82    18    15    1
    83   128   129    1
    84    30    31    2
    85    76    70   am
    86    28    24   am
    87    37    38    2
    88    37    42   am
    89   131   130    2
    90   144   141    1
    91    17    16    2
    92    70    71    2
    93    70    69    1
    94   130   129    1
    95   130   140   am
    96    15    16    1
    97    15    14    1
    98    42    43    1
    99    16    22   am
   100    24    25    2
   101    24    23    1
   102   129   132    1
   103   141   140    1
   104   141   142    1
   105   135   137   ar
   106   135   133   ar
   107    22    23    1
   108   137   138   ar
   109   132   133    1
   110    23    26    1
   111    69    72    1
   112    69    68    1
   113   133   134   ar
   114    72    73    1
   115    43    44    1
   116    43    46    1
   117   142   143    2
   118    57    54    1
   119   138   139    1
   120   138   136   ar
   121    44    45    2
   122    44    53   am
   123    53    54    1
   124   134   136   ar
   125    75    73    1
   126    46    47    1
   127    26    27    1
   128    54    55    1
   129    73    74    1
   130    47    48   ar
   131    47    49   ar
   132    55    56    2
   133    55    58   am
   134    48    50   ar
   135    58    59    1
   136    49    51   ar
   137    50    52   ar
   138    67    65   ar
   139    67    66   ar
   140    65    63   ar
   141    66    64   ar
   142    51    52   ar
   143    59    60    1
   144    59    62    1
   145    63    64   ar
   146    63    62    1
   147    60    61    2
