@<TRIPOS>MOLECULE
tmp/2hl4A00.pdb
 130 128 0 0 0
SMALL
GASTEIGER

@<TRIPOS>ATOM
      1  N         -8.3310    0.4500    5.8260 N.3    65  ASN65      -0.1240
      2  CA        -9.1700    1.4100    6.5270 C.3    65  ASN65       0.1653
      3  C        -10.3900    1.8220    5.7250 C.2    65  ASN65       0.2266
      4  O        -10.2630    2.2250    4.5670 O.2    65  ASN65      -0.2867
      5  CB        -8.3980    2.7080    6.8170 C.3    65  ASN65       0.1155
      6  CG        -7.2910    2.5430    7.8370 C.2    65  ASN65       0.2627
      7  OD1       -6.4480    3.4340    7.9910 O.2    65  ASN65      -0.2716
      8  ND2       -7.2850    1.4290    8.5420 N.am   65  ASN65      -0.0877
      9  N        -13.9550    8.1620   12.5910 N.3    89  ILE89      -0.1231
     10  CA       -13.0830    8.5710   11.4970 C.3    89  ILE89       0.1692
     11  C        -12.7890    7.4150   10.5410 C.2    89  ILE89       0.2591
     12  O        -12.6470    7.6200    9.3350 O.2    89  ILE89      -0.2718
     13  CB       -11.7540    9.1910   12.0420 C.3    89  ILE89       0.0266
     14  CG1      -10.8220    9.5520   10.8800 C.3    89  ILE89       0.0019
     15  CG2      -11.0800    8.2360   13.0190 C.3    89  ILE89       0.0020
     16  CD1       -9.6160   10.3840   11.2940 C.3    89  ILE89       0.0001
     17  N        -12.7260    6.1960   11.0680 N.am   90  GLN90      -0.1979
     18  CA       -12.4560    5.0340   10.2290 C.3    90  GLN90       0.1601
     19  C        -12.5830    3.7670   11.0390 C.2    90  GLN90       0.2287
     20  O        -12.6440    3.8080   12.2680 O.2    90  GLN90      -0.2864
     21  CB       -11.0240    5.0990    9.6770 C.3    90  GLN90       0.0394
     22  CG        -9.9330    5.1570   10.7770 C.3    90  GLN90       0.0908
     23  CD        -9.1700    3.8460   10.9810 C.2    90  GLN90       0.2608
     24  OE1       -9.7620    2.7840   11.1460 O.2    90  GLN90      -0.2717
     25  NE2       -7.8420    3.9290   10.9860 N.am   90  GLN90      -0.0878
     26  N        -11.2180   -0.5590   10.8730 N.3    92  HIS92      -0.1241
     27  CA       -10.3380   -1.5220   10.2300 C.3    92  HIS92       0.1621
     28  C        -10.3820   -2.7880   11.0580 C.2    92  HIS92       0.2264
     29  O        -11.0370   -2.8340   12.1000 O.2    92  HIS92      -0.2867
     30  CB        -8.9010   -1.0030   10.1950 C.3    92  HIS92       0.0745
     31  CG        -8.3400   -0.7200   11.5490 C.ar   92  HIS92       0.0817
     32  ND1       -8.5300    0.4830   12.1930 N.ar   92  HIS92      -0.2268
     33  CD2       -7.6410   -1.4990   12.4080 C.ar   92  HIS92       0.1154
     34  CE1       -7.9720    0.4340   13.3890 C.ar   92  HIS92       0.1986
     35  NE2       -7.4260   -0.7600   13.5450 N.ar   92  HIS92      -0.2212
     36  N         -8.0630   -6.5670   12.3530 N.3    94  HIS94      -0.1241
     37  CA        -6.8070   -7.2510   12.6300 C.3    94  HIS94       0.1621
     38  C         -7.2600   -8.6990   12.5110 C.2    94  HIS94       0.2264
     39  O         -8.3250   -9.0580   13.0180 O.2    94  HIS94      -0.2867
     40  CB        -6.3100   -6.9650   14.0460 C.3    94  HIS94       0.0745
     41  CG        -5.9700   -5.5280   14.2790 C.ar   94  HIS94       0.0817
     42  ND1       -4.7170   -5.0090   14.0290 N.ar   94  HIS94      -0.2268
     43  CD2       -6.7350   -4.4860   14.6790 C.ar   94  HIS94       0.1154
     44  CE1       -4.7270   -3.7090   14.2660 C.ar   94  HIS94       0.1986
     45  NE2       -5.9400   -3.3660   14.6590 N.ar   94  HIS94      -0.2212
     46  N        -12.0330   -2.6830   14.7010 N.3   117  HIS117     -0.1241
     47  CA       -11.7590   -1.4750   15.4640 C.3   117  HIS117      0.1621
     48  C        -12.4030   -0.2690   14.8100 C.2   117  HIS117      0.2264
     49  O        -12.0250    0.1160   13.7010 O.2   117  HIS117     -0.2867
     50  CB       -10.2490   -1.2370   15.5590 C.3   117  HIS117      0.0745
     51  CG        -9.5540   -2.1670   16.5000 C.ar  117  HIS117      0.0817
     52  ND1       -8.1840   -2.3110   16.5300 N.ar  117  HIS117     -0.2268
     53  CD2      -10.0410   -2.9930   17.4550 C.ar  117  HIS117      0.1154
     54  CE1       -7.8560   -3.1860   17.4630 C.ar  117  HIS117      0.1986
     55  NE2       -8.9650   -3.6150   18.0390 N.ar  117  HIS117     -0.2212
     56  N        -12.6420    3.4660   15.0550 N.3   119  VAL119     -0.1245
     57  CA       -11.8630    4.5500   15.6380 C.3   119  VAL119      0.1561
     58  C        -12.5770    5.8940   15.6860 C.2   119  VAL119      0.2260
     59  O        -13.0970    6.3620   14.6720 O.2   119  VAL119     -0.2867
     60  CB       -10.5460    4.6960   14.8570 C.3   119  VAL119      0.0252
     61  CG1       -9.6220    5.6910   15.5440 C.3   119  VAL119      0.0019
     62  CG2       -9.8830    3.3310   14.7150 C.3   119  VAL119      0.0019
     63  N         -8.1980   14.6770   14.8110 N.3   128  PHE128     -0.1241
     64  CA        -7.4430   13.5170   15.2560 C.3   128  PHE128      0.1605
     65  C         -6.0270   13.8450   15.7110 C.2   128  PHE128      0.2264
     66  O         -5.5680   13.3400   16.7370 O.2   128  PHE128     -0.2867
     67  CB        -7.4090   12.4650   14.1400 C.3   128  PHE128      0.0534
     68  CG        -6.8990   11.1260   14.5850 C.ar  128  PHE128     -0.0203
     69  CD1       -5.5360   10.8980   14.7470 C.ar  128  PHE128     -0.0042
     70  CD2       -7.7900   10.0970   14.8720 C.ar  128  PHE128     -0.0042
     71  CE1       -5.0670    9.6620   15.1920 C.ar  128  PHE128     -0.0003
     72  CE2       -7.3340    8.8590   15.3160 C.ar  128  PHE128     -0.0003
     73  CZ        -5.9690    8.6410   15.4770 C.ar  128  PHE128     -0.0000
     74  N        -11.8530    3.8040   20.9260 N.3   140  VAL140     -0.1245
     75  CA       -11.9390    2.7740   19.9070 C.3   140  VAL140      0.1561
     76  C        -12.8950    1.6950   20.3880 C.2   140  VAL140      0.2260
     77  O        -12.7690    1.1760   21.4990 O.2   140  VAL140     -0.2867
     78  CB       -10.5650    2.1360   19.6030 C.3   140  VAL140      0.0252
     79  CG1      -10.7180    1.0820   18.5030 C.3   140  VAL140      0.0019
     80  CG2       -9.5780    3.2050   19.1590 C.3   140  VAL140      0.0019
     81  N         -2.9600    3.0560   21.0210 N.3   195  LEU195     -0.1231
     82  CA        -3.1230    2.6150   19.6480 C.3   195  LEU195      0.1693
     83  C         -2.3430    1.2980   19.6760 C.2   195  LEU195      0.2593
     84  O         -1.3320    1.1920   20.3840 O.2   195  LEU195     -0.2718
     85  CB        -2.4490    3.5970   18.6910 C.3   195  LEU195      0.0284
     86  CG        -2.9930    5.0230   18.6550 C.3   195  LEU195      0.0019
     87  CD1       -2.1740    5.8500   17.6690 C.3   195  LEU195      0.0001
     88  CD2       -4.4590    5.0080   18.2490 C.3   195  LEU195      0.0001
     89  N         -2.7920    0.2990   18.9230 N.am  196  THR196     -0.1939
     90  CA        -2.1120   -0.9940   18.9270 C.3   196  THR196      0.2028
     91  C         -1.0370   -1.1520   17.8530 C.2   196  THR196      0.2643
     92  O         -0.4490   -2.2270   17.7100 O.2   196  THR196     -0.2714
     93  CB        -3.1110   -2.1500   18.7960 C.3   196  THR196      0.1808
     94  OG1       -3.7450   -2.0850   17.5150 O.3   196  THR196     -0.2208
     95  CG2       -4.1640   -2.0740   19.8920 C.3   196  THR196      0.0379
     96  N         -0.7960   -0.0900   17.0910 N.am  197  THR197     -0.1937
     97  CA         0.2580   -0.1080   16.0790 C.3   197  THR197      0.2013
     98  C          0.9950    1.2080   16.2590 C.2   197  THR197      0.2484
     99  O          0.4730    2.1380   16.8800 O.2   197  THR197     -0.2729
    100  CB        -0.2830   -0.1270   14.6230 C.3   197  THR197      0.1807
    101  OG1       -0.7770    1.1740   14.2760 O.3   197  THR197     -0.2208
    102  CG2       -1.3970   -1.1440   14.4680 C.3   197  THR197      0.0379
    103  N          2.2330    1.2970   15.7550 N.am  198  PRO198     -0.2715
    104  CA         2.9680    2.5550   15.8880 C.3   198  PRO198      0.1521
    105  C          2.0450    3.6430   15.3380 C.2   198  PRO198      0.2440
    106  O          1.3270    3.4120   14.3610 O.2   198  PRO198     -0.2731
    107  CB         4.1880    2.3220   15.0070 C.3   198  PRO198      0.0310
    108  CG         4.4750    0.8690   15.2450 C.3   198  PRO198      0.0237
    109  CD         3.0870    0.2370   15.1920 C.3   198  PRO198      0.0939
    110  N          2.0880    4.8550   15.9080 N.am  199  PRO199     -0.2727
    111  CA         2.9140    5.3450   17.0170 C.3   199  PRO199      0.1402
    112  C          2.6250    4.8550   18.4400 C.2   199  PRO199      0.2269
    113  O          3.2630    5.3190   19.3840 O.2   199  PRO199     -0.2865
    114  CB         2.7830    6.8580   16.8840 C.3   199  PRO199      0.0296
    115  CG         1.3720    7.0130   16.4370 C.3   199  PRO199      0.0237
    116  CD         1.2250    5.9340   15.3880 C.3   199  PRO199      0.0939
    117  N        -10.5200    2.3680   25.5760 N.3   206  TRP206     -0.1241
    118  CA       -10.9800    1.1880   24.8630 C.3   206  TRP206      0.1605
    119  C        -12.3210    0.7010   25.3640 C.2   206  TRP206      0.2264
    120  O        -12.5530    0.6250   26.5670 O.2   206  TRP206     -0.2867
    121  CB        -9.9690    0.0440   24.9820 C.3   206  TRP206      0.0550
    122  CG        -8.8550    0.1440   23.9960 C.ar  206  TRP206      0.0003
    123  CD1       -7.6430    0.7490   24.1780 C.ar  206  TRP206      0.0946
    124  CD2       -8.8790   -0.3070   22.6370 C.ar  206  TRP206      0.0152
    125  NE1       -6.9160    0.7070   23.0130 N.ar  206  TRP206     -0.2442
    126  CE2       -7.6500    0.0650   22.0530 C.ar  206  TRP206      0.0810
    127  CE3       -9.8240   -0.9890   21.8560 C.ar  206  TRP206      0.0012
    128  CZ2       -7.3410   -0.2220   20.7190 C.ar  206  TRP206      0.0191
    129  CZ3       -9.5150   -1.2730   20.5300 C.ar  206  TRP206      0.0001
    130  CH2       -8.2820   -0.8890   19.9770 C.ar  206  TRP206      0.0015
@<TRIPOS>BOND
     1     4     3    2
     2     3     2    1
     3     1     2    1
     4     2     5    1
     5     5     6    1
     6     6     7    2
     7     6     8   am
     8    12    11    2
     9    21    18    1
    10    21    22    1
    11    30    27    1
    12    30    31    1
    13    18    19    1
    14    18    17    1
    15    27    26    1
    16    27    28    1
    17    11    17   am
    18    11    10    1
    19    22    23    1
    20    14    16    1
    21    14    13    1
    22    23    25   am
    23    23    24    2
    24    19    20    2
    25    28    29    2
    26    10    13    1
    27    10     9    1
    28    31    32   ar
    29    31    33   ar
    30    13    15    1
    31    32    34   ar
    32    36    37    1
    33    33    35   ar
    34    38    37    1
    35    38    39    2
    36    37    40    1
    37    34    35   ar
    38    49    48    2
    39    42    44   ar
    40    42    41   ar
    41    40    41    1
    42    67    68    1
    43    67    64    1
    44    44    45   ar
    45   101   100    1
    46    41    43   ar
    47   106   105    2
    48   102   100    1
    49    68    69   ar
    50    68    70   ar
    51   100    97    1
    52    45    43   ar
    53    59    58    2
    54    46    47    1
    55    62    60    1
    56    69    71   ar
    57    48    47    1
    58    63    64    1
    59    60    61    1
    60    60    57    1
    61    70    72   ar
    62   107   108    1
    63   107   104    1
    64    56    57    1
    65    71    73   ar
    66   109   108    1
    67   109   103    1
    68    64    65    1
    69    72    73   ar
    70   105   104    1
    71   105   110   am
    72   116   110    1
    73   116   115    1
    74    47    50    1
    75    50    51    1
    76    57    58    1
    77    65    66    2
    78   103   104    1
    79   103    98   am
    80   110   111    1
    81    97    98    1
    82    97    96    1
    83    98    99    2
    84   115   114    1
    85    51    52   ar
    86    51    53   ar
    87    52    54   ar
    88   114   111    1
    89   111   112    1
    90    96    91   am
    91    53    55   ar
    92    54    55   ar
    93    94    93    1
    94    87    86    1
    95    92    91    2
    96    91    90    1
    97    88    86    1
    98   112   113    2
    99    79    78    1
   100    86    85    1
   101    85    82    1
   102    93    90    1
   103    93    95    1
   104    89    90    1
   105    89    83   am
   106    80    78    1
   107    78    75    1
   108    82    83    1
   109    82    81    1
   110    83    84    2
   111    75    76    1
   112    75    74    1
   113   130   129   ar
   114   130   128   ar
   115    76    77    2
   116   129   127   ar
   117   128   126   ar
   118   127   124   ar
   119   126   124   ar
   120   126   125   ar
   121   124   122   ar
   122   125   123   ar
   123   122   123   ar
   124   122   121    1
   125   118   121    1
   126   118   119    1
   127   118   117    1
   128   119   120    2
