@<TRIPOS>MOLECULE
tmp/2hl6B00.pdb
 78 75 0 0 0
SMALL
GASTEIGER

@<TRIPOS>ATOM
      1  N         48.2440    7.1910   49.4810 N.3    75  GLN75      -0.1231
      2  CA        48.7620    5.8450   49.1520 C.3    75  GLN75       0.1698
      3  C         50.2880    5.8110   49.0340 C.2    75  GLN75       0.2592
      4  O         50.9250    4.8010   49.3390 O.2    75  GLN75      -0.2718
      5  CB        48.1420    5.2970   47.8480 C.3    75  GLN75       0.0381
      6  CG        46.6340    4.9890   47.8710 C.3    75  GLN75       0.0905
      7  CD        46.2260    3.7670   46.9970 C.2    75  GLN75       0.2608
      8  OE1       47.0570    2.9520   46.6100 O.2    75  GLN75      -0.2717
      9  NE2       44.9450    3.6600   46.7040 N.am   75  GLN75      -0.0878
     10  N         50.8770    6.8890   48.5410 N.am   76  LEU76      -0.1980
     11  CA        52.3510    6.9880   48.4980 C.3    76  LEU76       0.1596
     12  C         52.9040    7.2160   49.9250 C.2    76  LEU76       0.2287
     13  O         53.8540    6.5660   50.3510 O.2    76  LEU76      -0.2864
     14  CB        52.7700    8.1300   47.5830 C.3    76  LEU76       0.0297
     15  CG        52.2970    8.0260   46.1350 C.3    76  LEU76       0.0022
     16  CD1       52.8280    9.2560   45.3450 C.3    76  LEU76       0.0001
     17  CD2       52.7180    6.7400   45.4440 C.3    76  LEU76       0.0001
     18  N         53.1850    3.9540   52.1500 N.3    79  ASN79      -0.1240
     19  CA        53.9450    2.7800   51.7390 C.3    79  ASN79       0.1653
     20  C         55.3640    2.8290   52.2860 C.2    79  ASN79       0.2266
     21  O         56.2010    3.5390   51.7510 O.2    79  ASN79      -0.2867
     22  CB        53.9740    2.7110   50.2260 C.3    79  ASN79       0.1155
     23  CG        54.7230    1.4700   49.6940 C.2    79  ASN79       0.2627
     24  OD1       55.3380    0.6930   50.4500 O.2    79  ASN79      -0.2716
     25  ND2       54.6320    1.3000   48.3820 N.am   79  ASN79      -0.0877
     26  N         57.6100    0.4090   52.5280 N.3    81  THR81      -0.1203
     27  CA        58.5460   -0.5860   52.0180 C.3    81  THR81       0.1994
     28  C         59.8320    0.0890   51.5380 C.2    81  THR81       0.2618
     29  O         59.7900    0.9400   50.6510 O.2    81  THR81      -0.2717
     30  CB        57.9390   -1.3820   50.8580 C.3    81  THR81       0.1784
     31  OG1       56.7490   -2.0360   51.3080 O.3    81  THR81      -0.2211
     32  CG2       58.9110   -2.4330   50.3690 C.3    81  THR81       0.0376
     33  N         60.9670   -0.2890   52.1150 N.am   82  LEU82      -0.1965
     34  CA        62.2760    0.1890   51.6280 C.3    82  LEU82       0.1728
     35  C         62.6030   -0.4110   50.2700 C.2    82  LEU82       0.2617
     36  O         62.3620   -1.6070   50.0320 O.2    82  LEU82      -0.2715
     37  CB        63.4040   -0.1320   52.6170 C.3    82  LEU82       0.0311
     38  CG        63.5620    0.7990   53.8070 C.3    82  LEU82       0.0022
     39  CD1       64.5200    0.2190   54.8650 C.3    82  LEU82       0.0001
     40  CD2       64.0040    2.2110   53.3810 C.3    82  LEU82       0.0001
     41  N         63.1710    0.4110   49.3960 N.am   83  THR83      -0.1937
     42  CA        63.5040   -0.0450   48.0440 C.3    83  THR83       0.2013
     43  C         64.8230    0.5860   47.5550 C.2    83  THR83       0.2484
     44  O         65.1290    1.7450   47.8610 O.2    83  THR83      -0.2729
     45  CB        62.3270    0.1930   47.0750 C.3    83  THR83       0.1807
     46  OG1       62.4360   -0.6550   45.9050 O.3    83  THR83      -0.2208
     47  CG2       62.2550    1.6590   46.6380 C.3    83  THR83       0.0379
     48  N         65.6420   -0.1940   46.8300 N.am   84  PRO84      -0.2726
     49  CA        66.8760    0.3720   46.3210 C.3    84  PRO84       0.1402
     50  C         66.6490    1.6140   45.4610 C.2    84  PRO84       0.2269
     51  O         65.7390    1.6260   44.6460 O.2    84  PRO84      -0.2865
     52  CB        67.4600   -0.7910   45.4890 C.3    84  PRO84       0.0296
     53  CG        66.9780   -2.0040   46.1670 C.3    84  PRO84       0.0237
     54  CD        65.5350   -1.6380   46.5160 C.3    84  PRO84       0.0939
     55  N         59.3620    3.5770   49.9600 N.3    98  GLY98      -0.1225
     56  CA        58.8540    2.9830   48.7430 C.3    98  GLY98       0.1811
     57  C         57.8190    3.7810   48.0060 C.2    98  GLY98       0.2280
     58  O         57.7640    3.8050   46.7600 O.2    98  GLY98      -0.2866
     59  N         59.4200    6.7180   46.4040 N.3   101  TYR101     -0.1227
     60  CA        60.1770    6.2800   45.2530 C.3   101  TYR101      0.1736
     61  C         59.2490    6.1340   44.0530 C.2   101  TYR101      0.2595
     62  O         59.6090    6.5360   42.9360 O.2   101  TYR101     -0.2718
     63  CB        60.8880    4.9550   45.5160 C.3   101  TYR101      0.0548
     64  CG        61.7990    4.5200   44.3780 C.ar  101  TYR101     -0.0200
     65  CD1       62.9770    5.2250   44.1090 C.ar  101  TYR101     -0.0009
     66  CD2       61.5190    3.3820   43.6080 C.ar  101  TYR101     -0.0009
     67  CE1       63.8370    4.8490   43.0820 C.ar  101  TYR101      0.0417
     68  CE2       62.3980    2.9980   42.5560 C.ar  101  TYR101      0.0417
     69  CZ        63.5450    3.7370   42.3250 C.ar  101  TYR101      0.1957
     70  OH        64.4650    3.4180   41.3270 O.3   101  TYR101     -0.2866
     71  N         58.0470    5.5780   44.2490 N.am  102  ILE102     -0.1980
     72  CA        57.0750    5.5030   43.1400 C.3   102  ILE102      0.1595
     73  C         56.7290    6.8970   42.6420 C.2   102  ILE102      0.2287
     74  O         56.7280    7.1550   41.4380 O.2   102  ILE102     -0.2864
     75  CB        55.8000    4.7500   43.5960 C.3   102  ILE102      0.0276
     76  CG1       56.0900    3.2530   43.7720 C.3   102  ILE102      0.0022
     77  CG2       54.6110    5.0060   42.6560 C.3   102  ILE102      0.0022
     78  CD1       56.8140    2.5810   42.6040 C.3   102  ILE102      0.0001
@<TRIPOS>BOND
     1    70    69    1
     2    74    73    2
     3    69    68   ar
     4    69    67   ar
     5    68    66   ar
     6    78    76    1
     7    73    72    1
     8    77    75    1
     9    62    61    2
    10    67    65   ar
    11    72    75    1
    12    72    71    1
    13    75    76    1
    14    66    64   ar
    15    61    71   am
    16    61    60    1
    17    65    64   ar
    18    64    63    1
    19    51    50    2
    20    60    63    1
    21    60    59    1
    22    16    15    1
    23    17    15    1
    24    50    49    1
    25    52    53    1
    26    52    49    1
    27    46    45    1
    28    15    14    1
    29    53    54    1
    30    49    48    1
    31    54    48    1
    32     8     7    2
    33    47    45    1
    34     9     7   am
    35    58    57    2
    36    48    43   am
    37     7     6    1
    38    45    42    1
    39    43    44    2
    40    43    42    1
    41    14    11    1
    42     5     6    1
    43     5     2    1
    44    57    56    1
    45    42    41    1
    46    25    23   am
    47    11    10    1
    48    11    12    1
    49    10     3   am
    50    56    55    1
    51     3     2    1
    52     3     4    2
    53     2     1    1
    54    41    35   am
    55    23    22    1
    56    23    24    2
    57    12    13    2
    58    36    35    2
    59    22    19    1
    60    35    34    1
    61    32    30    1
    62    29    28    2
    63    30    31    1
    64    30    27    1
    65    28    27    1
    66    28    33   am
    67    34    33    1
    68    34    37    1
    69    19    18    1
    70    19    20    1
    71    21    20    2
    72    27    26    1
    73    37    38    1
    74    40    38    1
    75    38    39    1
