@<TRIPOS>MOLECULE
tmp/2hl6A01.pdb
 113 106 0 0 0
SMALL
GASTEIGER

@<TRIPOS>ATOM
      1  N         53.5070    8.0760   25.8710 N.3    25  TYR25      -0.1227
      2  CA        52.6000    9.1080   26.3720 C.3    25  TYR25       0.1736
      3  C         53.2590   10.1020   27.3180 C.2    25  TYR25       0.2595
      4  O         52.6370   11.1260   27.6340 O.2    25  TYR25      -0.2718
      5  CB        51.4390    8.4480   27.0850 C.3    25  TYR25       0.0548
      6  CG        50.4870    7.6440   26.1990 C.ar   25  TYR25      -0.0200
      7  CD1       50.6200    6.2600   26.0580 C.ar   25  TYR25      -0.0009
      8  CD2       49.4560    8.2600   25.5360 C.ar   25  TYR25      -0.0009
      9  CE1       49.7410    5.5390   25.2560 C.ar   25  TYR25       0.0417
     10  CE2       48.5710    7.5580   24.7390 C.ar   25  TYR25       0.0417
     11  CZ        48.7020    6.1960   24.6290 C.ar   25  TYR25       0.1957
     12  OH        47.8050    5.4970   23.8200 O.3    25  TYR25      -0.2866
     13  N         54.4990    9.8360   27.7310 N.am   26  ALA26      -0.1980
     14  CA        55.2130   10.6700   28.7030 C.3    26  ALA26       0.1597
     15  C         56.6870   10.8000   28.3510 C.2    26  ALA26       0.2287
     16  O         57.5540   10.5810   29.1940 O.2    26  ALA26      -0.2864
     17  CB        55.0390   10.1220   30.1120 C.3    26  ALA26       0.0319
     18  N         53.0360    7.4640   19.8460 N.3    66  ARG66      -0.1245
     19  CA        52.0850    7.7070   20.9250 C.3    66  ARG66       0.1563
     20  C         50.6450    7.5920   20.4410 C.2    66  ARG66       0.2260
     21  O         50.2920    8.0670   19.3560 O.2    66  ARG66      -0.2867
     22  CB        52.2590    9.1260   21.4990 C.3    66  ARG66       0.0307
     23  CG        51.5240    9.3720   22.8620 C.3    66  ARG66       0.0489
     24  CD        51.4480   10.8580   23.1960 C.3    66  ARG66       0.2205
     25  NE        50.4950   11.5120   22.3260 N.pl3  66  ARG66      -0.0865
     26  CZ        50.3470   12.8240   22.2140 C.cat  66  ARG66       0.5346
     27  NH1       51.1050   13.6510   22.8850 N.pl3  66  ARG66       0.1354
     28  NH2       49.4040   13.3120   21.4320 N.pl3  66  ARG66       0.1354
     29  N         46.4590    8.4920   21.6890 N.3    68  THR68      -0.1203
     30  CA        45.7960    9.7900   21.8460 C.3    68  THR68       0.1994
     31  C         46.1930   10.4640   23.1490 C.2    68  THR68       0.2618
     32  O         46.0930    9.8870   24.2300 O.2    68  THR68      -0.2717
     33  CB        44.2890    9.5790   21.7860 C.3    68  THR68       0.1784
     34  OG1       43.8970    9.3780   20.4200 O.3    68  THR68      -0.2211
     35  CG2       43.5140   10.7620   22.3340 C.3    68  THR68       0.0376
     36  N         46.6940   11.6870   23.0080 N.am   69  GLY69      -0.1956
     37  CA        47.0130   12.5590   24.1470 C.3    69  GLY69       0.1869
     38  C         46.5100   13.9740   23.9860 C.2    69  GLY69       0.2309
     39  O         47.0400   14.9050   24.6180 O.2    69  GLY69      -0.2863
     40  N         42.0380   12.7960   19.2590 N.3    74  LEU74      -0.1245
     41  CA        40.7050   12.2170   19.3590 C.3    74  LEU74       0.1561
     42  C         39.8780   12.4110   18.0850 C.2    74  LEU74       0.2260
     43  O         39.1030   11.5270   17.6940 O.2    74  LEU74      -0.2867
     44  CB        39.9660   12.8010   20.5820 C.3    74  LEU74       0.0270
     45  CG        38.6440   12.1970   20.9920 C.3    74  LEU74       0.0019
     46  CD1       38.8890   10.7340   21.4010 C.3    74  LEU74       0.0001
     47  CD2       38.0190   13.0460   22.1140 C.3    74  LEU74       0.0001
     48  N         41.0350    9.6330   15.9410 N.3    77  ASP77      -0.1239
     49  CA        40.5850    8.3220   16.4410 C.3    77  ASP77       0.1674
     50  C         39.1500    8.0380   16.0120 C.2    77  ASP77       0.2266
     51  O         38.7810    6.8970   15.7740 O.2    77  ASP77      -0.2867
     52  CB        40.5860    8.2900   17.9960 C.3    77  ASP77       0.1410
     53  CG        41.7710    7.5350   18.6280 C.2    77  ASP77       0.3668
     54  OD1       42.2290    6.5490   18.0570 O.co2  77  ASP77      -0.2456
     55  OD2       42.0980    7.8180   19.8300 O.co2  77  ASP77      -0.2456
     56  N         50.5140    1.9100   20.9760 N.3   132  HIS132     -0.1226
     57  CA        49.2720    1.5890   21.6630 C.3   132  HIS132      0.1752
     58  C         48.1170    2.4530   21.1390 C.2   132  HIS132      0.2596
     59  O         48.3040    3.6660   20.9190 O.2   132  HIS132     -0.2718
     60  CB        49.4980    1.8210   23.1610 C.3   132  HIS132      0.0759
     61  CG        48.2640    1.7360   24.0150 C.ar  132  HIS132      0.0818
     62  ND1       47.5760    2.8430   24.4640 N.ar  132  HIS132     -0.2268
     63  CD2       47.6460    0.6700   24.5680 C.ar  132  HIS132      0.1154
     64  CE1       46.5520    2.4530   25.2070 C.ar  132  HIS132      0.1986
     65  NE2       46.5510    1.1300   25.2580 N.ar  132  HIS132     -0.2212
     66  N         46.9580    1.8400   20.9250 N.am  133  SER133     -0.1952
     67  CA        45.7190    2.5850   20.6120 C.3   133  SER133      0.1924
     68  C         45.8800    3.3100   19.2530 C.2   133  SER133      0.2314
     69  O         46.2450    2.6610   18.2710 O.2   133  SER133     -0.2863
     70  CB        45.2940    3.4730   21.7900 C.3   133  SER133      0.2116
     71  OG        43.9220    3.8190   21.7410 O.3   133  SER133     -0.2180
     72  N         38.6060   -1.4710   22.3440 N.3   196  ILE196     -0.1245
     73  CA        39.1290   -0.8010   21.1540 C.3   196  ILE196      0.1561
     74  C         39.3960   -1.7540   19.9770 C.2   196  ILE196      0.2260
     75  O         39.1010   -1.3950   18.8450 O.2   196  ILE196     -0.2867
     76  CB        40.3100    0.1030   21.5030 C.3   196  ILE196      0.0252
     77  CG1       39.8500    1.1990   22.4870 C.3   196  ILE196      0.0019
     78  CG2       40.9320    0.7060   20.2470 C.3   196  ILE196      0.0019
     79  CD1       38.6520    2.0540   22.0080 C.3   196  ILE196      0.0001
     80  N         36.9010    2.7090   25.4140 N.3   243  VAL243     -0.1245
     81  CA        38.0810    2.8610   26.2240 C.3   243  VAL243      0.1561
     82  C         37.6610    2.4210   27.6150 C.2   243  VAL243      0.2260
     83  O         36.9240    3.1120   28.2950 O.2   243  VAL243     -0.2867
     84  CB        38.5540    4.3360   26.2220 C.3   243  VAL243      0.0252
     85  CG1       39.7430    4.5200   27.1030 C.3   243  VAL243      0.0019
     86  CG2       38.8510    4.7820   24.7730 C.3   243  VAL243      0.0019
     87  N         41.7510   -1.4820   28.1860 N.3   247  HIS247     -0.1226
     88  CA        42.4690   -0.8110   27.1020 C.3   247  HIS247      0.1752
     89  C         43.6710   -0.0450   27.6070 C.2   247  HIS247      0.2596
     90  O         44.7180   -0.0170   26.9600 O.2   247  HIS247     -0.2718
     91  CB        41.5490    0.1960   26.4020 C.3   247  HIS247      0.0759
     92  CG        42.1910    0.8440   25.2120 C.ar  247  HIS247      0.0818
     93  ND1       42.7470    0.1210   24.1820 N.ar  247  HIS247     -0.2268
     94  CD2       42.4450    2.1430   24.9340 C.ar  247  HIS247      0.1154
     95  CE1       43.2390    0.9570   23.2810 C.ar  247  HIS247      0.1986
     96  NE2       43.0650    2.1920   23.7120 N.ar  247  HIS247     -0.2212
     97  N         43.5100    0.6130   28.7580 N.am  248  THR248     -0.1953
     98  CA        44.5290    1.5560   29.2420 C.3   248  THR248      0.1897
     99  C         45.7090    0.8780   29.9030 C.2   248  THR248      0.2313
    100  O         46.7720    1.4930   30.0200 O.2   248  THR248     -0.2863
    101  CB        43.9100    2.5880   30.2070 C.3   248  THR248      0.1794
    102  OG1       43.4520    1.9320   31.3890 O.3   248  THR248     -0.2208
    103  CG2       42.7660    3.3110   29.5240 C.3   248  THR248      0.0378
    104  N         48.8710    3.6680   30.4170 N.3   255  SER255     -0.1202
    105  CA        49.3880    4.7100   29.5300 C.3   255  SER255      0.2020
    106  C         49.8850    5.9380   30.3030 C.2   255  SER255      0.2619
    107  O         49.1520    6.5050   31.0780 O.2   255  SER255     -0.2717
    108  CB        48.3080    5.1320   28.5270 C.3   255  SER255      0.2103
    109  OG        47.8090    3.9950   27.8490 O.3   255  SER255     -0.2182
    110  N         51.1540    6.2490   30.1050 N.am  256  GLY256     -0.1956
    111  CA        51.7950    7.4190   30.7250 C.3   256  GLY256      0.1869
    112  C         52.0220    7.3830   32.2230 C.2   256  GLY256      0.2309
    113  O         52.3650    8.4130   32.8000 O.2   256  GLY256     -0.2863
@<TRIPOS>BOND
     1    51    50    2
     2    48    49    1
     3    50    49    1
     4    49    52    1
     5    43    42    2
     6    52    53    1
     7    54    53   ar
     8    42    41    1
     9    69    68    2
    10    53    55   ar
    11    75    74    2
    12    68    67    1
    13    40    41    1
    14    21    20    2
    15    41    44    1
    16    18    19    1
    17    74    73    1
    18    78    76    1
    19    34    33    1
    20    20    19    1
    21    44    45    1
    22    67    66    1
    23    67    70    1
    24    59    58    2
    25    19    22    1
    26    66    58   am
    27    56    57    1
    28    45    46    1
    29    45    47    1
    30    58    57    1
    31    73    76    1
    32    73    72    1
    33    28    26    1
    34    22    23    1
    35    76    77    1
    36    57    60    1
    37    29    30    1
    38    71    70    1
    39    33    30    1
    40    33    35    1
    41    30    31    1
    42    79    77    1
    43    26    25    2
    44    26    27    1
    45    25    24    1
    46    23    24    1
    47    36    31   am
    48    36    37    1
    49    31    32    2
    50    60    61    1
    51    95    96   ar
    52    95    93   ar
    53    96    94   ar
    54    12    11    1
    55    38    37    1
    56    38    39    2
    57    61    62   ar
    58    61    63   ar
    59    93    92   ar
    60    62    64   ar
    61    63    65   ar
    62    11    10   ar
    63    11     9   ar
    64    10     8   ar
    65    86    84    1
    66    94    92   ar
    67    64    65   ar
    68    92    91    1
    69     9     7   ar
    70    80    81    1
    71     8     6   ar
    72     1     2    1
    73     7     6   ar
    74     6     5    1
    75    84    81    1
    76    84    85    1
    77    81    82    1
    78     2     5    1
    79     2     3    1
    80    91    88    1
    81    90    89    2
    82    88    89    1
    83    88    87    1
    84     3     4    2
    85     3    13   am
    86    89    97   am
    87    82    83    2
    88    13    14    1
    89   109   108    1
    90    15    14    1
    91    15    16    2
    92   108   105    1
    93    14    17    1
    94    97    98    1
    95    98    99    1
    96    98   101    1
    97   103   101    1
    98   105   106    1
    99   105   104    1
   100    99   100    2
   101   110   106   am
   102   110   111    1
   103   101   102    1
   104   106   107    2
   105   111   112    1
   106   112   113    2
