@<TRIPOS>MOLECULE
tmp/2hldY00.pdb
 80 76 0 0 0
SMALL
GASTEIGER

@<TRIPOS>ATOM
      1  N         68.3560  -27.5610   98.7310 N.3   102  PHE102     -0.1227
      2  CA        68.6850  -27.7850   97.3190 C.3   102  PHE102      0.1736
      3  C         69.6740  -28.9310   97.1280 C.2   102  PHE102      0.2595
      4  O         69.6130  -29.6490   96.1320 O.2   102  PHE102     -0.2718
      5  CB        69.2220  -26.5040   96.6650 C.3   102  PHE102      0.0547
      6  CG        69.6070  -26.6780   95.2200 C.ar  102  PHE102     -0.0202
      7  CD1       68.6380  -26.9310   94.2510 C.ar  102  PHE102     -0.0042
      8  CD2       70.9400  -26.6000   94.8300 C.ar  102  PHE102     -0.0042
      9  CE1       68.9890  -27.1010   92.9170 C.ar  102  PHE102     -0.0003
     10  CE2       71.3030  -26.7660   93.4960 C.ar  102  PHE102     -0.0003
     11  CZ        70.3260  -27.0160   92.5380 C.ar  102  PHE102     -0.0000
     12  N         70.5760  -29.0900   98.0920 N.am  103  GLN103     -0.1979
     13  CA        71.5430  -30.1790   98.0900 C.3   103  GLN103      0.1601
     14  C         70.8480  -31.5410   98.2090 C.2   103  GLN103      0.2287
     15  O         71.2300  -32.4950   97.5320 O.2   103  GLN103     -0.2864
     16  CB        72.5550  -29.9890   99.2240 C.3   103  GLN103      0.0394
     17  CG        73.7670  -30.9130   99.1450 C.3   103  GLN103      0.0908
     18  CD        74.3720  -31.2100  100.5080 C.2   103  GLN103      0.2608
     19  OE1       74.4640  -30.3240  101.3630 O.2   103  GLN103     -0.2717
     20  NE2       74.7860  -32.4550  100.7130 N.am  103  GLN103     -0.0878
     21  N         68.9730  -32.1970   95.0510 N.3   106  ALA106     -0.1231
     22  CA        69.9830  -32.5120   94.0370 C.3   106  ALA106      0.1694
     23  C         70.6530  -33.8650   94.2790 C.2   106  ALA106      0.2591
     24  O         71.0190  -34.5500   93.3250 O.2   106  ALA106     -0.2718
     25  CB        71.0260  -31.4030   93.9480 C.3   106  ALA106      0.0304
     26  N         70.8170  -34.2390   95.5480 N.am  107  LEU107     -0.1980
     27  CA        71.3680  -35.5480   95.9140 C.3   107  LEU107      0.1596
     28  C         70.4070  -36.6790   95.5470 C.2   107  LEU107      0.2287
     29  O         70.8360  -37.7680   95.1500 O.2   107  LEU107     -0.2864
     30  CB        71.7040  -35.6110   97.4100 C.3   107  LEU107      0.0297
     31  CG        73.1340  -35.3230   97.8850 C.3   107  LEU107      0.0022
     32  CD1       73.1430  -35.0910   99.3850 C.3   107  LEU107      0.0001
     33  CD2       74.0920  -36.4580   97.5190 C.3   107  LEU107      0.0001
     34  N         68.1450  -36.2620   93.1240 N.3   109  ALA109     -0.1231
     35  CA        68.1550  -36.1880   91.6610 C.3   109  ALA109      0.1694
     36  C         69.3800  -36.8820   91.0610 C.2   109  ALA109      0.2592
     37  O         69.3230  -37.3940   89.9390 O.2   109  ALA109     -0.2718
     38  CB        68.0860  -34.7440   91.1990 C.3   109  ALA109      0.0304
     39  N         70.4800  -36.8890   91.8130 N.am  110  ASP110     -0.1974
     40  CA        71.7130  -37.5550   91.3970 C.3   110  ASP110      0.1709
     41  C         71.5330  -39.0710   91.4420 C.2   110  ASP110      0.2293
     42  O         72.0810  -39.7950   90.6110 O.2   110  ASP110     -0.2864
     43  CB        72.8800  -37.1250   92.2950 C.3   110  ASP110      0.1436
     44  CG        74.2170  -37.1150   91.5640 C.2   110  ASP110      0.3671
     45  OD1       74.2560  -36.7360   90.3670 O.co2 110  ASP110     -0.2456
     46  OD2       75.2870  -37.4520   92.1190 O.co2 110  ASP110     -0.2456
     47  N         69.4460  -40.3200   88.3480 N.3   113  LEU113     -0.1245
     48  CA        70.2020  -40.3270   87.0940 C.3   113  LEU113      0.1561
     49  C         71.1810  -41.5100   87.0200 C.2   113  LEU113      0.2260
     50  O         71.4220  -42.0610   85.9420 O.2   113  LEU113     -0.2867
     51  CB        70.9220  -38.9840   86.8880 C.3   113  LEU113      0.0270
     52  CG        70.0680  -37.7030   86.8390 C.3   113  LEU113      0.0019
     53  CD1       70.9140  -36.4610   87.0850 C.3   113  LEU113      0.0001
     54  CD2       69.2880  -37.5670   85.5360 C.3   113  LEU113      0.0001
     55  N         68.2620  -32.0630   83.6030 N.3   136  GLU136     -0.1231
     56  CA        68.8150  -32.4310   84.9060 C.3   136  GLU136      0.1699
     57  C         68.6360  -31.3320   85.9530 C.2   136  GLU136      0.2592
     58  O         68.3970  -31.6190   87.1310 O.2   136  GLU136     -0.2718
     59  CB        70.2970  -32.7830   84.7840 C.3   136  GLU136      0.0402
     60  CG        70.5740  -34.1210   84.1200 C.3   136  GLU136      0.1161
     61  CD        72.0590  -34.4430   84.0260 C.2   136  GLU136      0.3649
     62  OE1       72.8780  -33.5140   83.8340 O.co2 136  GLU136     -0.2457
     63  OE2       72.4090  -35.6380   84.1340 O.co2 136  GLU136     -0.2457
     64  N         68.7700  -30.0790   85.5180 N.am  137  TYR137     -0.1976
     65  CA        68.6070  -28.9090   86.3860 C.3   137  TYR137      0.1639
     66  C         67.1430  -28.7270   86.7740 C.2   137  TYR137      0.2290
     67  O         66.8420  -28.2770   87.8800 O.2   137  TYR137     -0.2864
     68  CB        69.1380  -27.6580   85.6750 C.3   137  TYR137      0.0560
     69  CG        69.1500  -26.3560   86.4770 C.ar  137  TYR137     -0.0198
     70  CD1       70.2100  -26.0450   87.3420 C.ar  137  TYR137     -0.0009
     71  CD2       68.1250  -25.4100   86.3280 C.ar  137  TYR137     -0.0009
     72  CE1       70.2300  -24.8330   88.0570 C.ar  137  TYR137      0.0417
     73  CE2       68.1400  -24.1990   87.0370 C.ar  137  TYR137      0.0417
     74  CZ        69.1920  -23.9190   87.8950 C.ar  137  TYR137      0.1957
     75  OH        69.2030  -22.7290   88.5870 O.3   137  TYR137     -0.2866
     76  N         66.0550  -31.8370   89.6270 N.3   140  ALA140     -0.1245
     77  CA        66.4150  -31.4510   90.9960 C.3   140  ALA140      0.1562
     78  C         65.6420  -30.2290   91.4960 C.2   140  ALA140      0.2260
     79  O         65.2870  -30.1450   92.6740 O.2   140  ALA140     -0.2867
     80  CB        67.9110  -31.1940   91.0920 C.3   140  ALA140      0.0290
@<TRIPOS>BOND
     1    55    56    1
     2    62    61   ar
     3    61    60    1
     4    61    63   ar
     5    60    59    1
     6    59    56    1
     7    56    57    1
     8    64    57   am
     9    64    65    1
    10    54    52    1
    11    68    65    1
    12    68    69    1
    13    50    49    2
    14    57    58    2
    15    71    69   ar
    16    71    73   ar
    17    65    66    1
    18    69    70   ar
    19    66    67    2
    20    52    51    1
    21    52    53    1
    22    51    48    1
    23    49    48    1
    24    73    74   ar
    25    48    47    1
    26    70    72   ar
    27    74    72   ar
    28    74    75    1
    29    76    77    1
    30    37    36    2
    31    45    44   ar
    32    42    41    2
    33    77    80    1
    34    77    78    1
    35    36    35    1
    36    36    39   am
    37    38    35    1
    38    40    41    1
    39    40    39    1
    40    40    43    1
    41    78    79    2
    42    44    46   ar
    43    44    43    1
    44    35    34    1
    45    11     9   ar
    46    11    10   ar
    47     9     7   ar
    48    24    23    2
    49    10     8   ar
    50    25    22    1
    51    22    23    1
    52    22    21    1
    53     7     6   ar
    54    23    26   am
    55     8     6   ar
    56    29    28    2
    57     6     5    1
    58    28    27    1
    59    26    27    1
    60    27    30    1
    61     4     3    2
    62     5     2    1
    63     3     2    1
    64     3    12   am
    65     2     1    1
    66    30    31    1
    67    33    31    1
    68    15    14    2
    69    31    32    1
    70    13    12    1
    71    13    14    1
    72    13    16    1
    73    17    16    1
    74    17    18    1
    75    18    20   am
    76    18    19    2
