@<TRIPOS>MOLECULE
tmp/2hlnB00.pdb
 89 85 0 0 0
SMALL
GASTEIGER

@<TRIPOS>ATOM
      1  N        -50.2710   35.0070  -80.3120 N.3    12  GLY12      -0.1210
      2  CA       -49.4700   34.2200  -81.2530 C.3    12  GLY12       0.1956
      3  C        -50.2660   33.7830  -82.4730 C.2    12  GLY12       0.2613
      4  O        -51.4970   33.8600  -82.4770 O.2    12  GLY12      -0.2717
      5  N        -49.5630   33.3240  -83.5110 N.am   13  THR13      -0.1938
      6  CA       -50.2160   32.8630  -84.7470 C.3    13  THR13       0.2028
      7  C        -50.9540   31.5440  -84.5700 C.2    13  THR13       0.2642
      8  O        -51.8050   31.1880  -85.3900 O.2    13  THR13      -0.2714
      9  CB       -49.2350   32.7460  -85.9360 C.3    13  THR13       0.1808
     10  OG1      -48.0940   31.9680  -85.5490 O.3    13  THR13      -0.2208
     11  CG2      -48.7840   34.1220  -86.4000 C.3    13  THR13       0.0379
     12  N        -50.6180   30.8160  -83.5060 N.am   14  ILE14      -0.1977
     13  CA       -51.2840   29.5550  -83.2000 C.3    14  ILE14       0.1596
     14  C        -52.7690   29.8270  -82.9500 C.2    14  ILE14       0.2287
     15  O        -53.6100   28.9510  -83.1380 O.2    14  ILE14      -0.2864
     16  CB       -50.6400   28.8430  -81.9690 C.3    14  ILE14       0.0276
     17  CG1      -51.2090   27.4270  -81.7970 C.3    14  ILE14       0.0022
     18  CG2      -50.7910   29.6870  -80.7000 C.3    14  ILE14       0.0022
     19  CD1      -50.5790   26.6380  -80.6670 C.3    14  ILE14       0.0001
     20  N        -49.1430   39.6900  -79.5270 N.3    42  GLY42      -0.1210
     21  CA       -47.9970   38.9680  -80.0560 C.3    42  GLY42       0.1956
     22  C        -46.9910   38.8750  -78.9300 C.2    42  GLY42       0.2613
     23  O        -46.8810   39.7980  -78.1180 O.2    42  GLY42      -0.2717
     24  N        -46.2740   37.7580  -78.8520 N.am   43  SER43      -0.1938
     25  CA       -45.3140   37.5560  -77.7680 C.3    43  SER43       0.2055
     26  C        -44.2130   38.6150  -77.7090 C.2    43  SER43       0.2642
     27  O        -43.6000   38.8130  -76.6620 O.2    43  SER43      -0.2714
     28  CB       -44.7210   36.1470  -77.7990 C.3    43  SER43       0.2130
     29  OG       -43.9960   35.9180  -78.9880 O.3    43  SER43      -0.2179
     30  N        -43.9870   39.3150  -78.8200 N.am   44  GLU44      -0.1976
     31  CA       -42.9730   40.3690  -78.8540 C.3    44  GLU44       0.1602
     32  C        -43.4120   41.5690  -78.0090 C.2    44  GLU44       0.2287
     33  O        -42.5930   42.4080  -77.6310 O.2    44  GLU44      -0.2864
     34  CB       -42.6400   40.7990  -80.2940 C.3    44  GLU44       0.0415
     35  CG       -43.7380   41.5740  -81.0400 C.3    44  GLU44       0.1163
     36  CD       -44.8710   40.7010  -81.5390 C.2    44  GLU44       0.3649
     37  OE1      -44.7930   39.4630  -81.3910 O.co2  44  GLU44      -0.2457
     38  OE2      -45.8350   41.2570  -82.1030 O.co2  44  GLU44      -0.2457
     39  N        -49.1580   30.6500  -76.6750 N.3    74  HIS74      -0.1226
     40  CA       -48.2890   31.8160  -76.6010 C.3    74  HIS74       0.1752
     41  C        -47.5750   31.9690  -77.9470 C.2    74  HIS74       0.2597
     42  O        -47.6170   31.0660  -78.7800 O.2    74  HIS74      -0.2718
     43  CB       -47.2580   31.5470  -75.4900 C.3    74  HIS74       0.0759
     44  CG       -46.5380   32.7630  -74.9900 C.ar   74  HIS74       0.0818
     45  ND1      -45.3400   33.1910  -75.5220 N.ar   74  HIS74      -0.2268
     46  CD2      -46.7780   33.5600  -73.9210 C.ar   74  HIS74       0.1154
     47  CE1      -44.9040   34.2330  -74.8380 C.ar   74  HIS74       0.1986
     48  NE2      -45.7590   34.4780  -73.8620 N.ar   74  HIS74      -0.2212
     49  N        -46.9760   33.1310  -78.1810 N.am   75  GLY75      -0.1942
     50  CA       -46.2000   33.3510  -79.3970 C.3    75  GLY75       0.2014
     51  C        -44.8150   32.7710  -79.1830 C.2    75  GLY75       0.2640
     52  O        -44.4230   32.5120  -78.0470 O.2    75  GLY75      -0.2714
     53  N        -44.0650   32.5760  -80.2640 N.am   76  THR76      -0.1936
     54  CA       -42.7220   31.9850  -80.1660 C.3    76  THR76       0.2028
     55  C        -41.6140   32.9850  -79.8480 C.2    76  THR76       0.2642
     56  O        -40.5860   32.6130  -79.2830 O.2    76  THR76      -0.2714
     57  CB       -42.3230   31.2380  -81.4570 C.3    76  THR76       0.1808
     58  OG1      -42.3140   32.1520  -82.5620 O.3    76  THR76      -0.2208
     59  CG2      -43.2800   30.1020  -81.7460 C.3    76  THR76       0.0379
     60  N        -41.8210   34.2470  -80.2210 N.am   77  ASP77      -0.1971
     61  CA       -40.8010   35.2870  -80.0450 C.3    77  ASP77       0.1709
     62  C        -40.2400   35.4820  -78.6350 C.2    77  ASP77       0.2293
     63  O        -39.0470   35.7470  -78.4730 O.2    77  ASP77      -0.2864
     64  CB       -41.2360   36.6100  -80.6740 C.3    77  ASP77       0.1436
     65  CG       -41.3870   36.5100  -82.1800 C.2    77  ASP77       0.3671
     66  OD1      -40.8680   35.5370  -82.7640 O.co2  77  ASP77      -0.2456
     67  OD2      -42.0230   37.4000  -82.7800 O.co2  77  ASP77      -0.2456
     68  N        -46.7820   28.0320  -82.2730 N.3   101  ALA101     -0.1231
     69  CA       -46.6970   27.5930  -83.6580 C.3   101  ALA101      0.1694
     70  C        -45.8020   28.5270  -84.4630 C.2   101  ALA101      0.2591
     71  O        -45.9180   29.7500  -84.3650 O.2   101  ALA101     -0.2718
     72  CB       -48.0780   27.5280  -84.2760 C.3   101  ALA101      0.0304
     73  N        -44.9090   27.9420  -85.2560 N.am  102  MET102     -0.1979
     74  CA       -43.9910   28.7150  -86.0920 C.3   102  MET102      0.1605
     75  C        -44.6350   29.1740  -87.3980 C.2   102  MET102      0.2287
     76  O        -44.1850   30.1360  -88.0200 O.2   102  MET102     -0.2864
     77  CB       -42.7150   27.9220  -86.3640 C.3   102  MET102      0.0413
     78  CG       -41.7910   27.8300  -85.1690 C.3   102  MET102      0.0598
     79  SD       -41.1860   29.4660  -84.6880 S.3   102  MET102     -0.1393
     80  CE       -40.2670   29.9180  -86.1470 C.3   102  MET102      0.0692
     81  N        -35.7190   29.4060  -78.3940 N.3   149  LYS149     -0.1245
     82  CA       -35.7920   29.5020  -79.8440 C.3   149  LYS149      0.1561
     83  C        -34.3580   29.6660  -80.3750 C.2   149  LYS149      0.2260
     84  O        -33.7420   30.7170  -80.2070 O.2   149  LYS149     -0.2867
     85  CB       -36.6670   30.7040  -80.2310 C.3   149  LYS149      0.0271
     86  CG       -37.0910   30.7540  -81.6870 C.3   149  LYS149      0.0035
     87  CD       -38.1430   31.8330  -81.9230 C.3   149  LYS149      0.0206
     88  CE       -38.6330   31.8160  -83.3640 C.3   149  LYS149      0.1093
     89  NZ       -39.7340   32.7850  -83.6080 N.3   149  LYS149     -0.1314
@<TRIPOS>BOND
     1    76    75    2
     2    75    74    1
     3    11     9    1
     4    77    74    1
     5    77    78    1
     6    80    79    1
     7    74    73    1
     8     9    10    1
     9     9     6    1
    10     8     7    2
    11    73    70   am
    12    78    79    1
    13     6     7    1
    14     6     5    1
    15     7    12   am
    16    70    71    2
    17    70    69    1
    18    72    69    1
    19    69    68    1
    20    89    88    1
    21     5     3   am
    22    12    13    1
    23    88    87    1
    24    13    14    1
    25    13    16    1
    26    15    14    2
    27    67    65   ar
    28    66    65   ar
    29    58    57    1
    30     4     3    2
    31     3     2    1
    32    65    64    1
    33    38    36   ar
    34    16    17    1
    35    16    18    1
    36    87    86    1
    37    17    19    1
    38    59    57    1
    39    86    85    1
    40    36    37   ar
    41    36    35    1
    42    57    54    1
    43     2     1    1
    44    35    34    1
    45    64    61    1
    46    83    84    2
    47    83    82    1
    48    34    31    1
    49    53    54    1
    50    53    51   am
    51    85    82    1
    52    60    61    1
    53    60    55   am
    54    54    55    1
    55    21    20    1
    56    21    22    1
    57    61    62    1
    58    55    56    2
    59    82    81    1
    60    50    51    1
    61    50    49    1
    62    51    52    2
    63    29    28    1
    64    22    24   am
    65    22    23    2
    66    31    30    1
    67    31    32    1
    68    24    25    1
    69    30    26   am
    70    42    41    2
    71    62    63    2
    72    49    41   am
    73    32    33    2
    74    41    40    1
    75    28    25    1
    76    25    26    1
    77    26    27    2
    78    39    40    1
    79    40    43    1
    80    45    44   ar
    81    45    47   ar
    82    43    44    1
    83    44    46   ar
    84    47    48   ar
    85    46    48   ar
