@<TRIPOS>MOLECULE
tmp/2hlvA00.pdb
 171 164 0 0 0
SMALL
GASTEIGER

@<TRIPOS>ATOM
      1  N         17.1160   47.0450   13.1150 N.3    12  ILE12      -0.1245
      2  CA        16.7910   45.7690   12.4930 C.3    12  ILE12       0.1561
      3  C         15.6760   45.1190   13.3150 C.2    12  ILE12       0.2260
      4  O         15.7900   45.0410   14.5300 O.2    12  ILE12      -0.2867
      5  CB        18.0130   44.8100   12.3980 C.3    12  ILE12       0.0252
      6  CG1       19.1010   45.4140   11.4860 C.3    12  ILE12       0.0019
      7  CG2       17.5710   43.4590   11.8760 C.3    12  ILE12       0.0019
      8  CD1       20.3720   44.5740   11.3400 C.3    12  ILE12       0.0001
      9  N         22.1140   37.9760   13.7130 N.3    26  PHE26      -0.1241
     10  CA        21.6600   39.1220   12.9140 C.3    26  PHE26       0.1605
     11  C         21.7700   40.4730   13.5930 C.2    26  PHE26       0.2264
     12  O         21.2650   41.4740   13.0660 O.2    26  PHE26      -0.2867
     13  CB        20.2890   38.8780   12.2950 C.3    26  PHE26       0.0534
     14  CG        20.3710   37.9570   11.1090 C.ar   26  PHE26      -0.0203
     15  CD1       20.3160   36.5940   11.2950 C.ar   26  PHE26      -0.0042
     16  CD2       20.6390   38.4550    9.8300 C.ar   26  PHE26      -0.0042
     17  CE1       20.4320   35.7120   10.2040 C.ar   26  PHE26      -0.0003
     18  CE2       20.7570   37.5990    8.7390 C.ar   26  PHE26      -0.0003
     19  CZ        20.6510   36.2250    8.9270 C.ar   26  PHE26      -0.0000
     20  N         23.9040   42.8700   13.4430 N.3    28  THR28      -0.1218
     21  CA        25.0280   43.2510   12.5650 C.3    28  THR28       0.1862
     22  C         25.2180   44.7700   12.5260 C.2    28  THR28       0.2287
     23  O         24.3190   45.4760   12.0450 O.2    28  THR28      -0.2866
     24  CB        24.7660   42.7300   11.1350 C.3    28  THR28       0.1770
     25  OG1       23.5050   43.2340   10.6420 O.3    28  THR28      -0.2211
     26  CG2       24.7350   41.2250   11.0910 C.3    28  THR28       0.0375
     27  N         26.8050   47.6320   10.7600 N.3    30  PHE30      -0.1241
     28  CA        27.3810   47.8540    9.4320 C.3    30  PHE30       0.1605
     29  C         28.5360   48.8700    9.5230 C.2    30  PHE30       0.2264
     30  O         28.5130   49.7630   10.3490 O.2    30  PHE30      -0.2867
     31  CB        26.3300   48.3770    8.4490 C.3    30  PHE30       0.0534
     32  CG        25.4650   47.3160    7.8080 C.ar   30  PHE30      -0.0203
     33  CD1       24.8310   47.6040    6.5920 C.ar   30  PHE30      -0.0042
     34  CD2       25.2620   46.0590    8.3920 C.ar   30  PHE30      -0.0042
     35  CE1       24.0130   46.6500    5.9570 C.ar   30  PHE30      -0.0003
     36  CE2       24.4730   45.0880    7.7680 C.ar   30  PHE30      -0.0003
     37  CZ        23.8270   45.3910    6.5590 C.ar   30  PHE30      -0.0000
     38  N         28.9370   43.5020    1.6920 N.3    44  PHE44      -0.1241
     39  CA        28.6110   43.9830    3.0270 C.3    44  PHE44       0.1605
     40  C         29.8100   43.7550    3.9460 C.2    44  PHE44       0.2264
     41  O         30.4030   42.6720    3.9490 O.2    44  PHE44      -0.2867
     42  CB        27.4220   43.1930    3.6110 C.3    44  PHE44       0.0534
     43  CG        26.0920   43.4290    2.9160 C.ar   44  PHE44      -0.0203
     44  CD1       25.0950   44.1820    3.5300 C.ar   44  PHE44      -0.0042
     45  CD2       25.8160   42.8640    1.6850 C.ar   44  PHE44      -0.0042
     46  CE1       23.8680   44.3900    2.9140 C.ar   44  PHE44      -0.0003
     47  CE2       24.5740   43.0640    1.0640 C.ar   44  PHE44      -0.0003
     48  CZ        23.6080   43.8260    1.6770 C.ar   44  PHE44      -0.0000
     49  N         30.6300   44.3020    8.0520 N.3    46  PHE46      -0.1241
     50  CA        29.9770   44.5600    9.3120 C.3    46  PHE46       0.1605
     51  C         30.6410   43.8300   10.4830 C.2    46  PHE46       0.2264
     52  O         31.4280   42.8990   10.2750 O.2    46  PHE46      -0.2867
     53  CB        28.4770   44.1790    9.2570 C.3    46  PHE46       0.0534
     54  CG        28.2090   42.7460    8.8770 C.ar   46  PHE46      -0.0203
     55  CD1       28.0300   42.3900    7.5400 C.ar   46  PHE46      -0.0042
     56  CD2       28.1410   41.7570    9.8530 C.ar   46  PHE46      -0.0042
     57  CE1       27.7800   41.0570    7.1820 C.ar   46  PHE46      -0.0003
     58  CE2       27.8770   40.4240    9.5000 C.ar   46  PHE46      -0.0003
     59  CZ        27.7170   40.0840    8.1620 C.ar   46  PHE46      -0.0000
     60  N         30.2250   39.7190    3.4990 N.3    59  VAL59      -0.1245
     61  CA        29.2320   38.9170    2.7790 C.3    59  VAL59       0.1561
     62  C         28.9680   39.5540    1.4220 C.2    59  VAL59       0.2260
     63  O         28.7370   40.7710    1.3370 O.2    59  VAL59      -0.2867
     64  CB        27.9060   38.8090    3.5850 C.3    59  VAL59       0.0252
     65  CG1       26.8130   38.1340    2.7460 C.3    59  VAL59       0.0019
     66  CG2       28.1260   38.0680    4.9200 C.3    59  VAL59       0.0019
     67  N         24.8100   33.7200    4.5420 N.3    73  TYR73      -0.1241
     68  CA        25.2790   34.2020    5.8330 C.3    73  TYR73       0.1605
     69  C         24.3630   33.5920    6.8930 C.2    73  TYR73       0.2264
     70  O         23.1630   33.8380    6.8790 O.2    73  TYR73      -0.2867
     71  CB        25.2430   35.7510    5.9280 C.3    73  TYR73       0.0534
     72  CG        25.5210   36.2170    7.3340 C.ar   73  TYR73      -0.0201
     73  CD1       26.7950   36.0750    7.8850 C.ar   73  TYR73      -0.0009
     74  CD2       24.5340   36.7520    8.1320 C.ar   73  TYR73      -0.0009
     75  CE1       27.0650   36.4430    9.1680 C.ar   73  TYR73       0.0417
     76  CE2       24.8060   37.1420    9.4460 C.ar   73  TYR73       0.0417
     77  CZ        26.0810   36.9830    9.9560 C.ar   73  TYR73       0.1957
     78  OH        26.3760   37.3380   11.2440 O.3    73  TYR73      -0.2866
     79  N         19.8670   33.5470    2.4440 N.3    77  ASN77      -0.1240
     80  CA        19.1050   34.7910    2.5570 C.3    77  ASN77       0.1653
     81  C         18.6080   35.2590    1.1980 C.2    77  ASN77       0.2266
     82  O         19.3460   35.2470    0.2130 O.2    77  ASN77      -0.2867
     83  CB        20.0000   35.8870    3.1770 C.3    77  ASN77       0.1155
     84  CG        20.5130   35.5090    4.5330 C.2    77  ASN77       0.2627
     85  OD1       19.8070   35.6200    5.5370 O.2    77  ASN77      -0.2716
     86  ND2       21.7420   35.0010    4.5730 N.am   77  ASN77      -0.0877
     87  N         16.5740   38.6500   -0.2080 N.3    79  PHE79      -0.1241
     88  CA        16.1070   39.9480    0.2250 C.3    79  PHE79       0.1605
     89  C         15.7570   40.9150   -0.8960 C.2    79  PHE79       0.2264
     90  O         16.1730   40.7550   -2.0480 O.2    79  PHE79      -0.2867
     91  CB        17.0760   40.5680    1.2490 C.3    79  PHE79       0.0534
     92  CG        18.4020   40.9850    0.7090 C.ar   79  PHE79      -0.0203
     93  CD1       19.4750   40.1170    0.7070 C.ar   79  PHE79      -0.0042
     94  CD2       18.5940   42.3060    0.2670 C.ar   79  PHE79      -0.0042
     95  CE1       20.7310   40.5630    0.2580 C.ar   79  PHE79      -0.0003
     96  CE2       19.8150   42.7390   -0.2080 C.ar   79  PHE79      -0.0003
     97  CZ        20.8800   41.8810   -0.2030 C.ar   79  PHE79      -0.0000
     98  N         15.4830   45.1530   -1.5990 N.3    81  ILE81      -0.1245
     99  CA        15.6350   46.5550   -1.1990 C.3    81  ILE81       0.1561
    100  C         14.3860   47.3170   -1.6350 C.2    81  ILE81       0.2260
    101  O         14.1010   47.3840   -2.8430 O.2    81  ILE81      -0.2867
    102  CB        16.9010   47.1760   -1.8260 C.3    81  ILE81       0.0252
    103  CG1       18.1390   46.3660   -1.4240 C.3    81  ILE81       0.0019
    104  CG2       17.0190   48.6570   -1.4390 C.3    81  ILE81       0.0019
    105  CD1       19.4560   46.8640   -2.0100 C.3    81  ILE81       0.0001
    106  N         18.8020   53.1220    3.0820 N.3    89  LEU89      -0.1245
    107  CA        18.5080   51.8130    2.5180 C.3    89  LEU89       0.1561
    108  C         17.5010   51.1140    3.4410 C.2    89  LEU89       0.2260
    109  O         17.7690   50.9510    4.6080 O.2    89  LEU89      -0.2867
    110  CB        19.8040   50.9790    2.4240 C.3    89  LEU89       0.0270
    111  CG        19.7890   49.7110    1.5830 C.3    89  LEU89       0.0019
    112  CD1       21.2300   49.2680    1.2150 C.3    89  LEU89       0.0001
    113  CD2       19.0370   48.5990    2.2400 C.3    89  LEU89       0.0001
    114  N         15.1540   47.6030    3.6800 N.3    91  ALA91      -0.1231
    115  CA        15.1050   46.2710    3.0670 C.3    91  ALA91       0.1694
    116  C         14.3760   45.2580    3.9380 C.2    91  ALA91       0.2592
    117  O         14.2730   45.4360    5.1400 O.2    91  ALA91      -0.2718
    118  CB        16.5020   45.7990    2.7840 C.3    91  ALA91       0.0304
    119  N         13.8500   44.2040    3.2960 N.am   92  HIS92      -0.1962
    120  CA        13.3600   43.0350    4.0520 C.3    92  HIS92       0.1787
    121  C         14.0120   41.7510    3.5210 C.2    92  HIS92       0.2620
    122  O         14.3200   41.6360    2.3340 O.2    92  HIS92      -0.2715
    123  CB        11.8270   42.9590    4.0550 C.3    92  HIS92       0.0785
    124  CG        11.1940   42.7780    2.7120 C.ar   92  HIS92       0.0821
    125  ND1       10.7760   43.8280    1.9180 N.ar   92  HIS92      -0.2267
    126  CD2       10.8700   41.6490    2.0400 C.ar   92  HIS92       0.1154
    127  CE1       10.2290   43.3460    0.8090 C.ar   92  HIS92       0.1986
    128  NE2       10.2810   42.0280    0.8560 N.ar   92  HIS92      -0.2212
    129  N         14.2370   40.8000    4.4340 N.am   93  ASN93      -0.1972
    130  CA        15.0050   39.5780    4.1610 C.3    93  ASN93       0.1688
    131  C         14.2670   38.3730    4.7180 C.2    93  ASN93       0.2292
    132  O         13.6800   38.4630    5.7860 O.2    93  ASN93      -0.2864
    133  CB        16.3720   39.6840    4.8510 C.3    93  ASN93       0.1181
    134  CG        17.2430   38.4470    4.6970 C.2    93  ASN93       0.2629
    135  OD1       17.7990   37.9120    5.6800 O.2    93  ASN93      -0.2716
    136  ND2       17.3670   37.9840    3.4810 N.am   93  ASN93      -0.0877
    137  N         13.1600   39.4520    8.4330 N.3   105  LEU105     -0.1231
    138  CA        13.8130   40.6010    9.0650 C.3   105  LEU105      0.1693
    139  C         13.5700   41.8530    8.2230 C.2   105  LEU105      0.2593
    140  O         13.4240   41.7890    6.9990 O.2   105  LEU105     -0.2718
    141  CB        15.3260   40.4090    9.2140 C.3   105  LEU105      0.0284
    142  CG        15.7300   39.2180   10.0840 C.3   105  LEU105      0.0019
    143  CD1       16.2150   38.0670    9.2500 C.3   105  LEU105      0.0001
    144  CD2       16.7480   39.6250   11.1050 C.3   105  LEU105      0.0001
    145  N         13.5570   43.0020    8.9030 N.am  106  THR106     -0.1939
    146  CA        13.5010   44.3070    8.2380 C.3   106  THR106      0.2028
    147  C         14.6970   45.1330    8.7090 C.2   106  THR106      0.2642
    148  O         15.2190   44.9020    9.7980 O.2   106  THR106     -0.2714
    149  CB        12.2050   45.0560    8.5750 C.3   106  THR106      0.1808
    150  OG1       12.1030   45.2060    9.9980 O.3   106  THR106     -0.2208
    151  CG2       11.0110   44.2740    8.0260 C.3   106  THR106      0.0379
    152  N         15.1510   46.0680    7.8830 N.am  107  GLU107     -0.1976
    153  CA        16.3290   46.8670    8.2450 C.3   107  GLU107      0.1602
    154  C         16.2720   48.2700    7.6810 C.2   107  GLU107      0.2287
    155  O         15.7620   48.4910    6.5910 O.2   107  GLU107     -0.2864
    156  CB        17.6530   46.2060    7.7620 C.3   107  GLU107      0.0415
    157  CG        17.8170   44.6960    8.0860 C.3   107  GLU107      0.1163
    158  CD        17.1180   43.6970    7.0930 C.2   107  GLU107      0.3649
    159  OE1       16.4510   44.1100    6.0970 O.co2 107  GLU107     -0.2457
    160  OE2       17.2610   42.4640    7.3380 O.co2 107  GLU107     -0.2457
    161  N         19.2700   51.2520    7.1810 N.3   109  PHE109     -0.1241
    162  CA        20.6980   51.6170    7.1560 C.3   109  PHE109      0.1605
    163  C         20.8150   53.0060    6.5360 C.2   109  PHE109      0.2264
    164  O         20.0690   53.3390    5.6190 O.2   109  PHE109     -0.2867
    165  CB        21.4780   50.5750    6.3380 C.3   109  PHE109      0.0534
    166  CG        21.1660   49.1610    6.7410 C.ar  109  PHE109     -0.0203
    167  CD1       20.1300   48.4470    6.1160 C.ar  109  PHE109     -0.0042
    168  CD2       21.8690   48.5540    7.7570 C.ar  109  PHE109     -0.0042
    169  CE1       19.8280   47.1270    6.5190 C.ar  109  PHE109     -0.0003
    170  CE2       21.5620   47.2550    8.1700 C.ar  109  PHE109     -0.0003
    171  CZ        20.5460   46.5540    7.5350 C.ar  109  PHE109     -0.0000
@<TRIPOS>BOND
     1   101   100    2
     2    90    89    2
     3   105   103    1
     4   102   104    1
     5   102   103    1
     6   102    99    1
     7   100    99    1
     8    98    99    1
     9    89    88    1
    10    87    88    1
    11    96    97   ar
    12    96    94   ar
    13    97    95   ar
    14    82    81    2
    15    88    91    1
    16    95    93   ar
    17    94    92   ar
    18    93    92   ar
    19    92    91    1
    20   127   128   ar
    21   127   125   ar
    22   128   126   ar
    23    47    48   ar
    24    47    45   ar
    25    81    80    1
    26   112   111    1
    27    63    62    2
    28    62    61    1
    29   111   113    1
    30   111   110    1
    31    48    46   ar
    32    45    43   ar
    33    38    39    1
    34   125   124   ar
    35   126   124   ar
    36   122   121    2
    37   110   107    1
    38    79    80    1
    39   107   106    1
    40   107   108    1
    41    80    83    1
    42   124   123    1
    43    65    64    1
    44    61    60    1
    45    61    64    1
    46   118   115    1
    47    46    44   ar
    48    43    44   ar
    49    43    42    1
    50    39    42    1
    51    39    40    1
    52   115   114    1
    53   115   116    1
    54    83    84    1
    55   119   116   am
    56   119   120    1
    57   108   109    2
    58   136   134   am
    59   121   120    1
    60   121   129   am
    61    64    66    1
    62   116   117    2
    63    40    41    2
    64   120   123    1
    65   130   129    1
    66   130   131    1
    67   130   133    1
    68    84    86   am
    69    84    85    2
    70    67    68    1
    71   134   133    1
    72   134   135    2
    73   131   132    2
    74   164   163    2
    75    68    71    1
    76    68    69    1
    77    71    72    1
    78    35    37   ar
    79    35    33   ar
    80   159   158   ar
    81   167   169   ar
    82   167   166   ar
    83   165   166    1
    84   165   162    1
    85   169   171   ar
    86   163   162    1
    87    37    36   ar
    88   155   154    2
    89    33    32   ar
    90   166   168   ar
    91    70    69    2
    92   140   139    2
    93   158   160   ar
    94   158   157    1
    95   162   161    1
    96    57    55   ar
    97    57    59   ar
    98    72    73   ar
    99    72    74   ar
   100   171   170   ar
   101    55    54   ar
   102   154   153    1
   103   168   170   ar
   104   156   157    1
   105   156   153    1
   106    36    34   ar
   107    32    34   ar
   108    32    31    1
   109   152   153    1
   110   152   147   am
   111    73    75   ar
   112   151   149    1
   113    49    50    1
   114    74    76   ar
   115    59    58   ar
   116   139   145   am
   117   139   138    1
   118   146   149    1
   119   146   147    1
   120   146   145    1
   121   137   138    1
   122    31    28    1
   123   149   150    1
   124   147   148    2
   125    18    19   ar
   126    18    16   ar
   127    54    53    1
   128    54    56   ar
   129    19    17   ar
   130   138   141    1
   131    75    77   ar
   132   141   142    1
   133   143   142    1
   134    53    50    1
   135    50    51    1
   136    28    29    1
   137    28    27    1
   138    76    77   ar
   139    58    56   ar
   140    29    30    2
   141    16    14   ar
   142    77    78    1
   143   142   144    1
   144    17    15   ar
   145    52    51    2
   146    25    24    1
   147    26    24    1
   148    14    15   ar
   149    14    13    1
   150    24    21    1
   151     8     6    1
   152     6     5    1
   153     7     5    1
   154    23    22    2
   155    13    10    1
   156     5     2    1
   157     2     1    1
   158     2     3    1
   159    22    21    1
   160    21    20    1
   161    10    11    1
   162    10     9    1
   163    12    11    2
   164     3     4    2
