@<TRIPOS>MOLECULE
tmp/2hmaA00.pdb
 137 129 0 0 0
SMALL
GASTEIGER

@<TRIPOS>ATOM
      1  N         29.8920   33.2420   18.6250 N.3    11  GLY11      -0.1225
      2  CA        30.7010   33.6670   17.4950 C.3    11  GLY11       0.1811
      3  C         30.1120   34.9070   16.8410 C.2    11  GLY11       0.2280
      4  O         29.0070   34.8680   16.3110 O.2    11  GLY11      -0.2866
      5  N         30.7190   37.5320   13.8560 N.3    12  SER12      -0.1217
      6  CA        31.4590   37.7560   12.6290 C.3    12  SER12       0.1889
      7  C         31.4580   39.2070   12.1810 C.2    12  SER12       0.2288
      8  O         32.2630   39.5860   11.3410 O.2    12  SER12      -0.2866
      9  CB        30.8690   36.9040   11.5260 C.3    12  SER12       0.2089
     10  OG        29.5420   37.3310   11.2890 O.3    12  SER12      -0.2183
     11  N         23.3390   38.3160   11.1690 N.3    16  ASP16      -0.1225
     12  CA        22.9480   37.0750   11.8460 C.3    16  ASP16       0.1805
     13  C         23.5470   36.9270   13.2540 C.2    16  ASP16       0.2598
     14  O         22.8180   36.7750   14.2460 O.2    16  ASP16      -0.2718
     15  CB        23.2520   35.8740   10.9420 C.3    16  ASP16       0.1424
     16  CG        22.5130   35.9610    9.5830 C.2    16  ASP16       0.3668
     17  OD1       21.4350   36.6100    9.5030 O.co2  16  ASP16      -0.2456
     18  OD2       23.0040   35.3870    8.5750 O.co2  16  ASP16      -0.2456
     19  N         24.8750   37.0080   13.3500 N.am   17  SER17      -0.1952
     20  CA        25.5480   36.8960   14.6530 C.3    17  SER17       0.1924
     21  C         25.2300   38.0560   15.5850 C.2    17  SER17       0.2314
     22  O         25.1620   37.8850   16.7990 O.2    17  SER17      -0.2863
     23  CB        27.0730   36.6460   14.5110 C.3    17  SER17       0.2116
     24  OG        27.7150   37.5380   13.6110 O.3    17  SER17      -0.2180
     25  N         32.6310   36.7780   20.6910 N.3    34  ILE34      -0.1231
     26  CA        34.0210   36.5490   20.2510 C.3    34  ILE34       0.1692
     27  C         34.1320   36.5870   18.7390 C.2    34  ILE34       0.2592
     28  O         33.3680   35.9040   18.0180 O.2    34  ILE34      -0.2718
     29  CB        34.6110   35.1980   20.7360 C.3    34  ILE34       0.0266
     30  CG1       34.4280   34.9960   22.2310 C.3    34  ILE34       0.0019
     31  CG2       36.1290   35.1060   20.4130 C.3    34  ILE34       0.0020
     32  CD1       35.4340   35.6730   23.0540 C.3    34  ILE34       0.0001
     33  N         35.0940   37.3860   18.2740 N.am   35  PHE35      -0.1976
     34  CA        35.4140   37.5140   16.8650 C.3    35  PHE35       0.1639
     35  C         36.6380   36.6640   16.5140 C.2    35  PHE35       0.2290
     36  O         37.6870   36.8170   17.1200 O.2    35  PHE35      -0.2864
     37  CB        35.6620   38.9910   16.5360 C.3    35  PHE35       0.0560
     38  CG        36.0840   39.2420   15.0970 C.ar   35  PHE35      -0.0200
     39  CD1       35.1490   39.2630   14.0780 C.ar   35  PHE35      -0.0042
     40  CD2       37.4200   39.4570   14.7760 C.ar   35  PHE35      -0.0042
     41  CE1       35.5320   39.4700   12.7810 C.ar   35  PHE35      -0.0003
     42  CE2       37.8200   39.6820   13.4610 C.ar   35  PHE35      -0.0003
     43  CZ        36.8750   39.6840   12.4650 C.ar   35  PHE35      -0.0000
     44  N         39.6610   35.9560   13.9340 N.3    36  LYS36      -0.1231
     45  CA        40.4120   36.2600   12.7460 C.3    36  LYS36       0.1693
     46  C         41.1450   35.0090   12.3120 C.2    36  LYS36       0.2592
     47  O         42.0800   34.5560   12.9680 O.2    36  LYS36      -0.2718
     48  CB        41.3810   37.4150   12.9540 C.3    36  LYS36       0.0285
     49  CG        41.8200   38.0040   11.6260 C.3    36  LYS36       0.0035
     50  CD        43.0090   38.9350   11.7320 C.3    36  LYS36       0.0206
     51  CE        43.4640   39.3080   10.3220 C.3    36  LYS36       0.1093
     52  NZ        44.1490   40.6340   10.2820 N.3    36  LYS36      -0.1314
     53  N         40.7040   34.4550   11.1880 N.am   37  ASN37      -0.1974
     54  CA        41.2370   33.1850   10.6830 C.3    37  ASN37       0.1688
     55  C         41.9590   33.2940    9.3610 C.2    37  ASN37       0.2292
     56  O         42.5280   32.3230    8.8910 O.2    37  ASN37      -0.2864
     57  CB        40.1130   32.1480   10.5910 C.3    37  ASN37       0.1181
     58  CG        39.4590   31.8940   11.9360 C.2    37  ASN37       0.2629
     59  OD1       40.0520   32.1470   12.9850 O.2    37  ASN37      -0.2716
     60  ND2       38.2380   31.4110   11.9120 N.am   37  ASN37      -0.0877
     61  N         33.5420   25.2230    4.0690 N.3    93  ASP93      -0.1239
     62  CA        32.6340   25.5090    5.1870 C.3    93  ASP93       0.1674
     63  C         32.3360   24.3320    6.0660 C.2    93  ASP93       0.2266
     64  O         32.3070   24.4650    7.2800 O.2    93  ASP93      -0.2867
     65  CB        31.3240   26.1600    4.7390 C.3    93  ASP93       0.1410
     66  CG        31.5410   27.5490    4.1770 C.2    93  ASP93       0.3668
     67  OD1       32.3480   28.3080    4.7750 O.co2  93  ASP93      -0.2456
     68  OD2       30.9330   27.8730    3.1300 O.co2  93  ASP93      -0.2456
     69  N         33.4000   24.4150    9.9720 N.3    96  ASN96      -0.1240
     70  CA        32.5090   24.1580   11.0920 C.3    96  ASN96       0.1653
     71  C         33.0140   22.9930   11.9490 C.2    96  ASN96       0.2266
     72  O         33.0530   23.0750   13.1850 O.2    96  ASN96      -0.2867
     73  CB        31.0870   23.8700   10.5960 C.3    96  ASN96       0.1155
     74  CG        30.4330   25.0710    9.9840 C.2    96  ASN96       0.2627
     75  OD1       30.6430   26.1800   10.4220 O.2    96  ASN96      -0.2716
     76  ND2       29.6260   24.8550    8.9630 N.am   96  ASN96      -0.0877
     77  N         34.9110   26.3000   13.9610 N.3   100  LYS100     -0.1245
     78  CA        33.8060   26.8600   14.7440 C.3   100  LYS100      0.1561
     79  C         33.3780   25.9720   15.8960 C.2   100  LYS100      0.2260
     80  O         32.9140   26.4790   16.9260 O.2   100  LYS100     -0.2867
     81  CB        32.6310   27.2520   13.8670 C.3   100  LYS100      0.0271
     82  CG        32.9930   28.3160   12.8180 C.3   100  LYS100      0.0035
     83  CD        31.7440   28.9380   12.1860 C.3   100  LYS100      0.0206
     84  CE        32.0370   29.4990   10.7980 C.3   100  LYS100      0.1093
     85  NZ        32.3700   28.4310    9.7880 N.3   100  LYS100     -0.1314
     86  N         37.2000   26.8260   18.3110 N.3   104  PHE104     -0.1241
     87  CA        36.4390   27.8940   18.9340 C.3   104  PHE104      0.1605
     88  C         35.7250   27.4240   20.1940 C.2   104  PHE104      0.2264
     89  O         35.6560   28.1480   21.1910 O.2   104  PHE104     -0.2867
     90  CB        35.4440   28.4640   17.9390 C.3   104  PHE104      0.0534
     91  CG        34.6240   29.6060   18.4770 C.ar  104  PHE104     -0.0203
     92  CD1       35.2290   30.8270   18.8230 C.ar  104  PHE104     -0.0042
     93  CD2       33.2460   29.4820   18.6170 C.ar  104  PHE104     -0.0042
     94  CE1       34.4640   31.8950   19.2910 C.ar  104  PHE104     -0.0003
     95  CE2       32.4710   30.5590   19.0930 C.ar  104  PHE104     -0.0003
     96  CZ        33.0910   31.7590   19.4310 C.ar  104  PHE104     -0.0000
     97  N         26.1900   30.2930   17.4710 N.3   118  THR118     -0.1203
     98  CA        26.4840   30.9370   16.2030 C.3   118  THR118      0.1994
     99  C         25.1620   31.3170   15.5890 C.2   118  THR118      0.2618
    100  O         24.0950   30.8440   16.0350 O.2   118  THR118     -0.2717
    101  CB        27.1390   29.9840   15.2080 C.3   118  THR118      0.1784
    102  OG1       26.2160   28.9350   14.9310 O.3   118  THR118     -0.2211
    103  CG2       28.4670   29.4030   15.7300 C.3   118  THR118      0.0376
    104  N         25.2380   32.1510   14.5410 N.am  119  GLY119     -0.1942
    105  CA        24.0540   32.5510   13.8020 C.3   119  GLY119      0.2014
    106  C         23.7180   31.6120   12.6530 C.2   119  GLY119      0.2638
    107  O         23.0860   32.0340   11.7030 O.2   119  GLY119     -0.2714
    108  N         24.1380   30.3510   12.7130 N.am  120  HIS120     -0.1973
    109  CA        23.7080   29.3530   11.7680 C.3   120  HIS120      0.1656
    110  C         22.1800   29.1610   11.8560 C.2   120  HIS120      0.2291
    111  O         21.6100   29.1320   12.9640 O.2   120  HIS120     -0.2864
    112  CB        24.3880   28.0060   12.0590 C.3   120  HIS120      0.0771
    113  CG        25.8000   27.9150   11.5630 C.ar  120  HIS120      0.0820
    114  ND1       26.8940   28.0230   12.4040 N.ar  120  HIS120     -0.2267
    115  CD2       26.3020   27.7520   10.3100 C.ar  120  HIS120      0.1154
    116  CE1       28.0040   27.9020   11.6950 C.ar  120  HIS120      0.1986
    117  NE2       27.6700   27.7480   10.4250 N.ar  120  HIS120     -0.2212
    118  N         21.1950   25.7820    7.2530 N.3   143  GLN143     -0.1245
    119  CA        22.6080   25.4670    7.1380 C.3   143  GLN143      0.1566
    120  C         23.0330   24.0870    7.6490 C.2   143  GLN143      0.2260
    121  O         24.2180   23.8130    7.7300 O.2   143  GLN143     -0.2867
    122  CB        23.4200   26.5800    7.7640 C.3   143  GLN143      0.0367
    123  CG        23.7020   27.7100    6.7690 C.3   143  GLN143      0.0905
    124  CD        23.7160   29.0800    7.4120 C.2   143  GLN143      0.2608
    125  OE1       23.2190   29.2860    8.5010 O.2   143  GLN143     -0.2717
    126  NE2       24.3010   30.0280    6.7280 N.am  143  GLN143     -0.0878
    127  N         25.9330   22.3580    5.8930 N.3   146  PHE146     -0.1241
    128  CA        27.3100   22.6980    6.1860 C.3   146  PHE146      0.1605
    129  C         27.7410   22.2280    7.5790 C.2   146  PHE146      0.2264
    130  O         28.9450   22.2410    7.9090 O.2   146  PHE146     -0.2867
    131  CB        27.4820   24.2070    6.0750 C.3   146  PHE146      0.0534
    132  CG        27.2510   24.7410    4.6940 C.ar  146  PHE146     -0.0203
    133  CD1       28.1930   24.5460    3.6980 C.ar  146  PHE146     -0.0042
    134  CD2       26.0840   25.4580    4.3920 C.ar  146  PHE146     -0.0042
    135  CE1       27.9700   25.0410    2.4080 C.ar  146  PHE146     -0.0003
    136  CE2       25.8540   25.9800    3.1240 C.ar  146  PHE146     -0.0003
    137  CZ        26.8050   25.7790    2.1230 C.ar  146  PHE146     -0.0000
@<TRIPOS>BOND
     1   137   135   ar
     2   137   136   ar
     3   135   133   ar
     4   136   134   ar
     5    68    66   ar
     6   133   132   ar
     7    61    62    1
     8    66    65    1
     9    66    67   ar
    10   134   132   ar
    11   132   131    1
    12    65    62    1
    13    62    63    1
    14   127   128    1
    15    63    64    2
    16   131   128    1
    17   128   129    1
    18   126   124   am
    19   123   124    1
    20   123   122    1
    21   119   118    1
    22   119   120    1
    23   119   122    1
    24   124   125    2
    25   129   130    2
    26   120   121    2
    27    18    16   ar
    28    56    55    2
    29    76    74   am
    30    55    54    1
    31    17    16   ar
    32    16    15    1
    33    85    84    1
    34    69    70    1
    35    74    75    2
    36    74    73    1
    37    52    51    1
    38   115   117   ar
    39   115   113   ar
    40    51    50    1
    41   117   116   ar
    42    57    54    1
    43    57    58    1
    44    73    70    1
    45    54    53    1
    46    84    83    1
    47    15    12    1
    48    70    71    1
    49    11    12    1
    50    53    46   am
    51    10     9    1
    52     8     7    2
    53     9     6    1
    54   113   112    1
    55   113   114   ar
    56    49    50    1
    57    49    48    1
    58   116   114   ar
    59   107   106    2
    60   109   110    1
    61   109   112    1
    62   109   108    1
    63    12    13    1
    64   110   111    2
    65    60    58   am
    66    58    59    2
    67    71    72    2
    68     7     6    1
    69    83    82    1
    70    46    45    1
    71    46    47    2
    72    43    41   ar
    73    43    42   ar
    74     6     5    1
    75   106   108   am
    76   106   105    1
    77    45    48    1
    78    45    44    1
    79    41    39   ar
    80    82    81    1
    81    13    19   am
    82    13    14    2
    83    19    20    1
    84    42    40   ar
    85    24    23    1
    86   105   104    1
    87    81    78    1
    88    77    78    1
    89    39    38   ar
    90    23    20    1
    91   104    99   am
    92    20    21    1
    93    78    79    1
    94    40    38   ar
    95   102   101    1
    96    38    37    1
    97   101   103    1
    98   101    98    1
    99    21    22    2
   100    99   100    2
   101    99    98    1
   102    79    80    2
   103    98    97    1
   104     4     3    2
   105    35    34    1
   106    35    36    2
   107    37    34    1
   108     3     2    1
   109    34    33    1
   110     2     1    1
   111    90    91    1
   112    90    87    1
   113    28    27    2
   114    33    27   am
   115    86    87    1
   116    91    93   ar
   117    91    92   ar
   118    93    95   ar
   119    27    26    1
   120    92    94   ar
   121    87    88    1
   122    95    96   ar
   123    94    96   ar
   124    88    89    2
   125    26    25    1
   126    26    29    1
   127    31    29    1
   128    29    30    1
   129    30    32    1
