@<TRIPOS>MOLECULE
tmp/2hmfB00.pdb
 187 180 0 0 0
SMALL
GASTEIGER

@<TRIPOS>ATOM
      1  N          5.2960  -18.8430   12.0440 N.3     5  LYS5       -0.1245
      2  CA         4.6230  -17.5430   12.0890 C.3     5  LYS5        0.1561
      3  C          5.0050  -16.6790   10.8830 C.2     5  LYS5        0.2260
      4  O          6.1820  -16.5560   10.5530 O.2     5  LYS5       -0.2867
      5  CB         4.9490  -16.8340   13.4070 C.3     5  LYS5        0.0271
      6  CG         4.2900  -15.4820   13.5960 C.3     5  LYS5        0.0035
      7  CD         5.2390  -14.3470   13.2780 C.3     5  LYS5        0.0206
      8  CE         4.4770  -13.0900   12.9380 C.3     5  LYS5        0.1093
      9  NZ         5.3420  -11.8840   12.9880 N.3     5  LYS5       -0.1314
     10  N          4.6680  -12.8080    9.0610 N.3     7  GLY7       -0.1210
     11  CA         4.3960  -11.4130    9.3640 C.3     7  GLY7        0.1956
     12  C          3.5630  -10.6970    8.3260 C.2     7  GLY7        0.2612
     13  O          3.1320  -11.2880    7.3360 O.2     7  GLY7       -0.2717
     14  N          3.3610   -9.4050    8.5550 N.am    8  GLY8       -0.1942
     15  CA         2.5650   -8.5580    7.6910 C.3     8  GLY8        0.2014
     16  C          3.0010   -8.5720    6.2470 C.2     8  GLY8        0.2640
     17  O          2.2030   -8.9010    5.3640 O.2     8  GLY8       -0.2714
     18  N          4.2620   -8.2230    5.9950 N.am    9  THR9       -0.1936
     19  CA         4.7410   -8.1440    4.6160 C.3     9  THR9        0.2028
     20  C          4.7690   -9.5180    3.9630 C.2     9  THR9        0.2642
     21  O          4.4610   -9.6440    2.7850 O.2     9  THR9       -0.2714
     22  CB         6.1190   -7.4770    4.4840 C.3     9  THR9        0.1808
     23  OG1        7.0650   -8.1670    5.3000 O.3     9  THR9       -0.2208
     24  CG2        6.0590   -6.0160    4.8880 C.3     9  THR9        0.0379
     25  N          5.1140  -10.5390    4.7350 N.am   10  SER10      -0.1949
     26  CA         5.1200  -11.9090    4.2400 C.3    10  SER10       0.1924
     27  C          3.7860  -12.3220    3.6060 C.2    10  SER10       0.2314
     28  O          3.7570  -13.1880    2.7240 O.2    10  SER10      -0.2863
     29  CB         5.4660  -12.8800    5.3670 C.3    10  SER10       0.2116
     30  OG         6.7540  -12.6060    5.8940 O.3    10  SER10      -0.2180
     31  N         -0.0380  -12.9260   10.8480 N.3    39  SER39      -0.1217
     32  CA        -0.3850  -11.5310   11.1000 C.3    39  SER39       0.1889
     33  C         -1.4220  -11.0250   10.1060 C.2    39  SER39       0.2288
     34  O         -1.7180  -11.6710    9.1090 O.2    39  SER39      -0.2866
     35  CB         0.8430  -10.6360   11.0240 C.3    39  SER39       0.2089
     36  OG         1.7050  -10.8710   12.1150 O.3    39  SER39      -0.2183
     37  N          2.9790   -5.8080   17.4160 N.3   207  GLY207     -0.1225
     38  CA         4.0260   -6.7720   17.0860 C.3   207  GLY207      0.1811
     39  C          3.8240   -8.0880   17.8000 C.2   207  GLY207      0.2280
     40  O          4.6800   -8.9700   17.7600 O.2   207  GLY207     -0.2866
     41  N          4.3730  -12.3730   17.0380 N.3   210  ASP210     -0.1239
     42  CA         5.5610  -13.1570   17.3930 C.3   210  ASP210      0.1674
     43  C          5.3080  -13.8650   18.7120 C.2   210  ASP210      0.2266
     44  O          5.5830  -15.0550   18.8630 O.2   210  ASP210     -0.2867
     45  CB         6.7940  -12.2610   17.5520 C.3   210  ASP210      0.1410
     46  CG         7.2540  -11.6250   16.2460 C.2   210  ASP210      0.3668
     47  OD1        6.9030  -12.1220   15.1560 O.co2 210  ASP210     -0.2456
     48  OD2        7.9940  -10.6210   16.3310 O.co2 210  ASP210     -0.2456
     49  N          8.9120  -16.1570   10.4920 N.3   228  TRP228     -0.1227
     50  CA         9.0840  -15.8300    9.0910 C.3   228  TRP228      0.1737
     51  C          8.7490  -14.3560    8.8570 C.2   228  TRP228      0.2596
     52  O          7.6240  -13.9030    9.1140 O.2   228  TRP228     -0.2718
     53  CB         8.2350  -16.7500    8.2030 C.3   228  TRP228      0.0564
     54  CG         8.7650  -18.1590    8.1080 C.ar  228  TRP228      0.0003
     55  CD1        8.5560  -19.1780    8.9980 C.ar  228  TRP228      0.0946
     56  CD2        9.5840  -18.6980    7.0650 C.ar  228  TRP228      0.0152
     57  NE1        9.1940  -20.3130    8.5710 N.ar  228  TRP228     -0.2442
     58  CE2        9.8390  -20.0460    7.3920 C.ar  228  TRP228      0.0810
     59  CE3       10.1410  -18.1660    5.8910 C.ar  228  TRP228      0.0012
     60  CZ2       10.6320  -20.8760    6.5860 C.ar  228  TRP228      0.0191
     61  CZ3       10.9290  -18.9890    5.0890 C.ar  228  TRP228      0.0001
     62  CH2       11.1650  -20.3320    5.4430 C.ar  228  TRP228      0.0015
     63  N          9.7440  -13.6220    8.3620 N.am  229  THR229     -0.1939
     64  CA         9.6730  -12.1780    8.2680 C.3   229  THR229      0.2028
     65  C         10.2770  -11.7390    6.9360 C.2   229  THR229      0.2642
     66  O         10.3860  -12.5530    6.0230 O.2   229  THR229     -0.2714
     67  CB        10.3310  -11.4950    9.5260 C.3   229  THR229      0.1808
     68  OG1       10.1920  -10.0720    9.4430 O.3   229  THR229     -0.2208
     69  CG2       11.8030  -11.8790    9.7070 C.3   229  THR229      0.0379
     70  N         10.6470  -10.4650    6.8110 N.am  230  ASP230     -0.1957
     71  CA        11.1630   -9.9380    5.5480 C.3   230  ASP230      0.1840
     72  C         12.6670   -9.6180    5.5540 C.2   230  ASP230      0.2621
     73  O         13.1400   -8.8080    4.7530 O.2   230  ASP230     -0.2715
     74  CB        10.3370   -8.7350    5.0730 C.3   230  ASP230      0.1450
     75  CG        10.1610   -7.6650    6.1520 C.2   230  ASP230      0.3671
     76  OD1       11.0390   -7.5320    7.0470 O.co2 230  ASP230     -0.2456
     77  OD2        9.1330   -6.9430    6.0940 O.co2 230  ASP230     -0.2456
     78  N         13.3970  -10.2460    6.4730 N.am  231  VAL231     -0.1977
     79  CA        14.8540  -10.1820    6.5240 C.3   231  VAL231      0.1596
     80  C         15.3620  -11.5460    6.9890 C.2   231  VAL231      0.2287
     81  O         14.6260  -12.2980    7.6380 O.2   231  VAL231     -0.2864
     82  CB        15.3850   -9.0690    7.4820 C.3   231  VAL231      0.0276
     83  CG1       15.1140   -7.6920    6.9200 C.3   231  VAL231      0.0022
     84  CG2       14.8230   -9.2110    8.9020 C.3   231  VAL231      0.0022
     85  N         16.8320  -13.2760    9.2910 N.3   233  GLY233     -0.1210
     86  CA        17.2120  -13.4330   10.7010 C.3   233  GLY233      0.1956
     87  C         17.4370  -12.1150   11.4240 C.2   233  GLY233      0.2612
     88  O         16.9970  -11.0550   10.9720 O.2   233  GLY233     -0.2717
     89  N         18.1070  -12.1890   12.5670 N.am  234  VAL234     -0.1965
     90  CA        18.4760  -10.9960   13.3240 C.3   234  VAL234      0.1727
     91  C         19.8470  -10.5040   12.8380 C.2   234  VAL234      0.2616
     92  O         20.8170  -11.2640   12.7710 O.2   234  VAL234     -0.2715
     93  CB        18.5140  -11.2630   14.8420 C.3   234  VAL234      0.0290
     94  CG1       18.6270   -9.9560   15.6050 C.3   234  VAL234      0.0023
     95  CG2       17.2820  -12.0340   15.2800 C.3   234  VAL234      0.0023
     96  N         19.8980   -9.2300   12.4760 N.am  235  TYR235     -0.1974
     97  CA        21.1130   -8.6080   11.9620 C.3   235  TYR235      0.1639
     98  C         21.8400   -7.8050   13.0410 C.2   235  TYR235      0.2290
     99  O         21.2720   -7.4840   14.0900 O.2   235  TYR235     -0.2864
    100  CB        20.7830   -7.7130   10.7680 C.3   235  TYR235      0.0560
    101  CG        20.4760   -8.4640    9.4950 C.ar  235  TYR235     -0.0198
    102  CD1       21.3460   -8.4070    8.4050 C.ar  235  TYR235     -0.0009
    103  CD2       19.3180   -9.2200    9.3680 C.ar  235  TYR235     -0.0009
    104  CE1       21.0730   -9.0830    7.2160 C.ar  235  TYR235      0.0417
    105  CE2       19.0270   -9.8970    8.1850 C.ar  235  TYR235      0.0417
    106  CZ        19.9060   -9.8220    7.1100 C.ar  235  TYR235      0.1957
    107  OH        19.6170  -10.4910    5.9350 O.3   235  TYR235     -0.2866
    108  N         22.4250   -4.8160   13.1630 N.3   237  THR237     -0.1203
    109  CA        21.5310   -3.7120   13.4930 C.3   237  THR237      0.1994
    110  C         20.3880   -3.7420   12.4760 C.2   237  THR237      0.2618
    111  O         20.2950   -4.6940   11.7070 O.2   237  THR237     -0.2717
    112  CB        22.2730   -2.3610   13.5200 C.3   237  THR237      0.1784
    113  OG1       21.4660   -1.3820   14.1840 O.3   237  THR237     -0.2211
    114  CG2       22.6280   -1.8860   12.1040 C.3   237  THR237      0.0376
    115  N         19.5180   -2.7330   12.4760 N.am  238  ASP238     -0.1960
    116  CA        18.4080   -2.6790   11.5210 C.3   238  ASP238      0.1825
    117  C         18.9110   -2.4190   10.0980 C.2   238  ASP238      0.2464
    118  O         19.3380   -1.3040    9.7840 O.2   238  ASP238     -0.2730
    119  CB        17.3810   -1.6210   11.9300 C.3   238  ASP238      0.1450
    120  CG        16.1380   -1.6220   11.0410 C.2   238  ASP238      0.3671
    121  OD1       16.1050   -2.3170   10.0090 O.co2 238  ASP238     -0.2456
    122  OD2       15.1730   -0.9100   11.3800 O.co2 238  ASP238     -0.2456
    123  N         18.8330   -3.4430    9.2250 N.am  239  PRO239     -0.2715
    124  CA        19.3730   -3.3550    7.8660 C.3   239  PRO239      0.1536
    125  C         18.7170   -2.2880    6.9690 C.2   239  PRO239      0.2598
    126  O         19.2200   -2.0050    5.8700 O.2   239  PRO239     -0.2715
    127  CB        19.1430   -4.7630    7.2980 C.3   239  PRO239      0.0310
    128  CG        18.0680   -5.3530    8.1250 C.3   239  PRO239      0.0237
    129  CD        18.2240   -4.7620    9.4880 C.3   239  PRO239      0.0939
    130  N         17.6130   -1.7070    7.4170 N.am  240  ARG240     -0.1978
    131  CA        16.9870   -0.6160    6.6770 C.3   240  ARG240      0.1597
    132  C         17.5310    0.7460    7.1030 C.2   240  ARG240      0.2287
    133  O         17.2680    1.7570    6.4520 O.2   240  ARG240     -0.2864
    134  CB        15.4640   -0.6980    6.7900 C.3   240  ARG240      0.0334
    135  CG        14.9480   -1.9650    6.1070 C.3   240  ARG240      0.0492
    136  CD        13.4240   -2.1170    6.0940 C.3   240  ARG240      0.2205
    137  NE        13.0070   -2.9940    4.9860 N.pl3 240  ARG240     -0.0865
    138  CZ        13.1760   -4.3230    4.9400 C.cat 240  ARG240      0.5346
    139  NH1       13.7560   -4.9820    5.9390 N.pl3 240  ARG240      0.1354
    140  NH2       12.7640   -5.0010    3.8810 N.pl3 240  ARG240      0.1354
    141  N         17.8910   -7.2710   22.8340 N.3   259  LEU259     -0.1245
    142  CA        17.7960   -6.5780   21.5450 C.3   259  LEU259      0.1561
    143  C         16.3530   -6.2510   21.1640 C.2   259  LEU259      0.2260
    144  O         16.0350   -5.1250   20.7900 O.2   259  LEU259     -0.2867
    145  CB        18.4250   -7.4150   20.4440 C.3   259  LEU259      0.0270
    146  CG        19.8890   -7.2400   20.0780 C.3   259  LEU259      0.0019
    147  CD1       20.0750   -8.0300   18.8120 C.3   259  LEU259      0.0001
    148  CD2       20.2800   -5.7850   19.8430 C.3   259  LEU259      0.0001
    149  N         14.6390   -2.5100   20.8430 N.3   263  GLY263     -0.1210
    150  CA        14.2950   -1.9180   19.5530 C.3   263  GLY263      0.1956
    151  C         14.5280   -2.7060   18.2770 C.2   263  GLY263      0.2612
    152  O         14.2440   -2.2170   17.1960 O.2   263  GLY263     -0.2717
    153  N         15.0480   -3.9180   18.3840 N.am  264  ALA264     -0.1965
    154  CA        15.1460   -4.7900   17.2210 C.3   264  ALA264      0.1728
    155  C         13.7770   -5.3810   16.9130 C.2   264  ALA264      0.2616
    156  O         13.4430   -6.4780   17.3620 O.2   264  ALA264     -0.2715
    157  CB        16.1590   -5.8840   17.4640 C.3   264  ALA264      0.0334
    158  N         12.9920   -4.6360   16.1380 N.am  265  LYS265     -0.1963
    159  CA        11.5830   -4.9530   15.8570 C.3   265  LYS265      0.1728
    160  C         11.3000   -6.3860   15.3970 C.2   265  LYS265      0.2616
    161  O         10.2240   -6.9130   15.6600 O.2   265  LYS265     -0.2715
    162  CB        11.0170   -3.9550   14.8410 C.3   265  LYS265      0.0311
    163  CG         9.5410   -3.7400   14.9780 C.3   265  LYS265      0.0038
    164  CD         8.9210   -3.0220   13.7920 C.3   265  LYS265      0.0206
    165  CE         7.3940   -3.0170   13.9300 C.3   265  LYS265      0.1093
    166  NZ         6.7530   -2.7560   12.6380 N.3   265  LYS265     -0.1314
    167  N         12.2640   -7.0150   14.7250 N.am  266  VAL266     -0.1977
    168  CA        12.1210   -8.3900   14.1860 C.3   266  VAL266      0.1596
    169  C         11.4900   -9.3900   15.1270 C.2   266  VAL266      0.2287
    170  O         10.8440  -10.3540   14.6930 O.2   266  VAL266     -0.2864
    171  CB        13.4660   -9.0290   13.7820 C.3   266  VAL266      0.0276
    172  CG1       13.5770   -9.1140   12.2830 C.3   266  VAL266      0.0022
    173  CG2       14.6580   -8.3150   14.4460 C.3   266  VAL266      0.0022
    174  N         23.4170   -3.7690   17.6670 N.3   311  ILE311     -0.1231
    175  CA        22.9950   -2.4460   18.1100 C.3   311  ILE311      0.1692
    176  C         21.5260   -2.2320   17.7800 C.2   311  ILE311      0.2592
    177  O         21.1140   -2.4030   16.6280 O.2   311  ILE311     -0.2718
    178  CB        23.8100   -1.3430   17.4160 C.3   311  ILE311      0.0266
    179  CG1       25.3030   -1.5760   17.6260 C.3   311  ILE311      0.0019
    180  CG2       23.3990    0.0490   17.9180 C.3   311  ILE311      0.0020
    181  CD1       26.1210   -1.1780   16.4580 C.3   311  ILE311      0.0001
    182  N         20.7410   -1.8480   18.7820 N.am  312  SER312     -0.1952
    183  CA        19.3350   -1.5420   18.5690 C.3   312  SER312      0.1924
    184  C         19.0050   -0.1390   19.0530 C.2   312  SER312      0.2314
    185  O         19.7200    0.4220   19.8750 O.2   312  SER312     -0.2863
    186  CB        18.4430   -2.5880   19.2400 C.3   312  SER312      0.2116
    187  OG        18.6790   -2.6270   20.6310 O.3   312  SER312     -0.2180
@<TRIPOS>BOND
     1    28    27    2
     2    21    20    2
     3    27    26    1
     4   140   138    1
     5    20    19    1
     6    20    25   am
     7    26    25    1
     8    26    29    1
     9    22    19    1
    10    22    24    1
    11    22    23    1
    12    19    18    1
    13    73    72    2
    14   138   137    2
    15   138   139    1
    16   137   136    1
    17    74    71    1
    18    74    75    1
    19    61    62   ar
    20    61    59   ar
    21    17    16    2
    22    29    30    1
    23    62    60   ar
    24    71    72    1
    25    71    70    1
    26    72    78   am
    27   126   125    2
    28    59    56   ar
    29   107   106    1
    30    18    16   am
    31    66    65    2
    32   136   135    1
    33    77    75   ar
    34   135   134    1
    35    75    76   ar
    36    16    15    1
    37   133   132    2
    38    78    79    1
    39    79    80    1
    40    79    82    1
    41    60    58   ar
    42   131   134    1
    43   131   132    1
    44   131   130    1
    45    70    65   am
    46    83    82    1
    47    65    64    1
    48   125   130   am
    49   125   124    1
    50    80    81    2
    51    56    58   ar
    52    56    54   ar
    53   106   104   ar
    54   106   105   ar
    55   104   102   ar
    56   127   124    1
    57   127   128    1
    58    13    12    2
    59    58    57   ar
    60    82    84    1
    61    15    14    1
    62   124   123    1
    63    54    53    1
    64    54    55   ar
    65   128   129    1
    66   105   103   ar
    67    53    50    1
    68    64    63    1
    69    64    67    1
    70    12    14   am
    71    12    11    1
    72    63    51   am
    73   102   101   ar
    74    57    55   ar
    75    51    50    1
    76    51    52    2
    77    10    11    1
    78    50    49    1
    79    34    33    2
    80   123   129    1
    81   123   117   am
    82    85    86    1
    83   103   101   ar
    84    68    67    1
    85   101   100    1
    86    67    69    1
    87   118   117    2
    88   121   120   ar
    89   117   116    1
    90    33    32    1
    91     4     3    2
    92    86    87    1
    93   100    97    1
    94    31    32    1
    95     3     2    1
    96    88    87    2
    97    35    32    1
    98    35    36    1
    99   120   122   ar
   100   120   119    1
   101    87    89   am
   102   116   119    1
   103   116   115    1
   104   111   110    2
   105    97    96    1
   106    97    98    1
   107     1     2    1
   108     2     5    1
   109   114   112    1
   110   172   171    1
   111    96    91   am
   112   110   115   am
   113   110   109    1
   114    89    90    1
   115   166   165    1
   116    92    91    2
   117    91    90    1
   118     8     9    1
   119     8     7    1
   120    98    99    2
   121   108   109    1
   122     7     6    1
   123    90    93    1
   124     5     6    1
   125   109   112    1
   126   112   113    1
   127   171   168    1
   128   171   173    1
   129   164   165    1
   130   164   163    1
   131   168   167    1
   132   168   169    1
   133   170   169    2
   134   167   160   am
   135   162   163    1
   136   162   159    1
   137    93    95    1
   138    93    94    1
   139    47    46   ar
   140   160   161    2
   141   160   159    1
   142   159   158    1
   143   158   155   am
   144    46    48   ar
   145    46    45    1
   146   181   179    1
   147   177   176    2
   148   155   154    1
   149   155   156    2
   150    41    42    1
   151    38    37    1
   152    38    39    1
   153   152   151    2
   154   154   157    1
   155   154   153    1
   156    42    45    1
   157    42    43    1
   158   178   179    1
   159   178   180    1
   160   178   175    1
   161   174   175    1
   162    40    39    2
   163   176   175    1
   164   176   182   am
   165   151   153   am
   166   151   150    1
   167   183   182    1
   168   183   184    1
   169   183   186    1
   170    43    44    2
   171   147   146    1
   172   184   185    2
   173   186   187    1
   174   150   149    1
   175   148   146    1
   176   146   145    1
   177   145   142    1
   178   144   143    2
   179   143   142    1
   180   142   141    1
