@<TRIPOS>MOLECULE
tmp/2hmkA00.pdb
 152 146 0 0 0
SMALL
GASTEIGER

@<TRIPOS>ATOM
      1  N         10.6740   56.5560   87.2520 N.3   201  ASN201     -0.1225
      2  CA        10.5430   55.6350   86.1210 C.3   201  ASN201      0.1785
      3  C         11.8970   55.0520   85.7280 C.2   201  ASN201      0.2597
      4  O         12.0410   53.8250   85.5960 O.2   201  ASN201     -0.2718
      5  CB         9.8720   56.3540   84.9480 C.3   201  ASN201      0.1169
      6  CG         9.7120   55.4810   83.7420 C.2   201  ASN201      0.2627
      7  OD1       10.5590   55.4970   82.8550 O.2   201  ASN201     -0.2716
      8  ND2        8.6450   54.6900   83.7090 N.am  201  ASN201     -0.0877
      9  N         12.9080   55.9080   85.5780 N.am  202  PHE202     -0.1976
     10  CA        14.2580   55.4360   85.2180 C.3   202  PHE202      0.1639
     11  C         14.9510   54.6910   86.3500 C.2   202  PHE202      0.2290
     12  O         15.7500   53.7970   86.0750 O.2   202  PHE202     -0.2864
     13  CB        15.1550   56.5790   84.7440 C.3   202  PHE202      0.0560
     14  CG        14.9540   56.9360   83.3100 C.ar  202  PHE202     -0.0200
     15  CD1       13.7380   57.4510   82.8830 C.ar  202  PHE202     -0.0042
     16  CD2       15.9560   56.7570   82.3820 C.ar  202  PHE202     -0.0042
     17  CE1       13.5270   57.7720   81.5640 C.ar  202  PHE202     -0.0003
     18  CE2       15.7390   57.0860   81.0290 C.ar  202  PHE202     -0.0003
     19  CZ        14.5070   57.5800   80.6360 C.ar  202  PHE202     -0.0000
     20  N         11.7830   51.2050   87.0730 N.3   205  ASP205     -0.1225
     21  CA        10.5660   50.7570   86.4400 C.3   205  ASP205      0.1805
     22  C         10.7690   49.9090   85.2060 C.2   205  ASP205      0.2597
     23  O         10.6620   50.3860   84.1250 O.2   205  ASP205     -0.2718
     24  CB         9.6740   51.9350   86.1240 C.3   205  ASP205      0.1424
     25  CG         8.2390   51.5410   85.8030 C.2   205  ASP205      0.3668
     26  OD1        7.4410   52.4690   85.8620 O.co2 205  ASP205     -0.2456
     27  OD2        7.9450   50.4110   85.4340 O.co2 205  ASP205     -0.2456
     28  N         11.0500   48.6370   85.3960 N.am  206  ALA206     -0.1979
     29  CA        11.0800   47.7000   84.2770 C.3   206  ALA206      0.1597
     30  C          9.6710   47.1920   83.9540 C.2   206  ALA206      0.2287
     31  O          9.4210   46.7560   82.8250 O.2   206  ALA206     -0.2864
     32  CB        12.0030   46.5470   84.5850 C.3   206  ALA206      0.0319
     33  N          6.9160   48.6740   83.4020 N.3   208  HIS208     -0.1226
     34  CA         6.1450   49.4220   82.3790 C.3   208  HIS208      0.1752
     35  C          6.5520   49.1140   80.9440 C.2   208  HIS208      0.2595
     36  O          5.8010   49.4030   80.0170 O.2   208  HIS208     -0.2718
     37  CB         6.2410   50.9520   82.6320 C.3   208  HIS208      0.0759
     38  CG         7.4360   51.6110   82.0220 C.ar  208  HIS208      0.0818
     39  ND1        8.7230   51.4300   82.4870 N.ar  208  HIS208     -0.2268
     40  CD2        7.5260   52.5140   81.0170 C.ar  208  HIS208      0.1154
     41  CE1        9.5540   52.1570   81.7580 C.ar  208  HIS208      0.1986
     42  NE2        8.8500   52.8240   80.8610 N.ar  208  HIS208     -0.2212
     43  N          7.7500   48.5660   80.7450 N.am  209  VAL209     -0.1980
     44  CA         8.3790   48.5790   79.4260 C.3   209  VAL209      0.1595
     45  C          7.5450   47.8480   78.3780 C.2   209  VAL209      0.2287
     46  O          7.2340   48.4100   77.3240 O.2   209  VAL209     -0.2864
     47  CB         9.8300   48.0630   79.4820 C.3   209  VAL209      0.0276
     48  CG1       10.4330   47.9150   78.0570 C.3   209  VAL209      0.0022
     49  CG2       10.6600   49.0060   80.3270 C.3   209  VAL209      0.0022
     50  N          5.7590   50.6890   76.1910 N.3   213  HIS213     -0.1241
     51  CA         6.5770   50.7840   74.9830 C.3   213  HIS213      0.1621
     52  C          6.2500   49.6880   73.9570 C.2   213  HIS213      0.2264
     53  O          7.0570   49.4190   73.0680 O.2   213  HIS213     -0.2867
     54  CB         8.0740   50.7770   75.3290 C.3   213  HIS213      0.0745
     55  CG         8.5090   51.9520   76.1510 C.ar  213  HIS213      0.0817
     56  ND1        8.5010   53.2460   75.6700 N.ar  213  HIS213     -0.2268
     57  CD2        8.9400   52.0300   77.4310 C.ar  213  HIS213      0.1154
     58  CE1        8.9140   54.0690   76.6190 C.ar  213  HIS213      0.1986
     59  NE2        9.1910   53.3570   77.6980 N.ar  213  HIS213     -0.2212
     60  N         15.3170   43.9820   73.0250 N.3   224  PHE224     -0.1241
     61  CA        14.2590   43.6960   74.0080 C.3   224  PHE224      0.1605
     62  C         12.8490   43.5330   73.3950 C.2   224  PHE224      0.2264
     63  O         11.8550   43.4930   74.1300 O.2   224  PHE224     -0.2867
     64  CB        14.2100   44.7970   75.0730 C.3   224  PHE224      0.0534
     65  CG        15.5310   45.0760   75.7390 C.ar  224  PHE224     -0.0203
     66  CD1       16.2680   44.0540   76.3110 C.ar  224  PHE224     -0.0042
     67  CD2       16.0290   46.3760   75.8180 C.ar  224  PHE224     -0.0042
     68  CE1       17.4790   44.3160   76.9310 C.ar  224  PHE224     -0.0003
     69  CE2       17.2300   46.6420   76.4490 C.ar  224  PHE224     -0.0003
     70  CZ        17.9560   45.6130   77.0080 C.ar  224  PHE224     -0.0000
     71  N          9.3960   41.6620   74.5400 N.3   227  LEU227     -0.1245
     72  CA         8.5170   42.1480   75.5960 C.3   227  LEU227      0.1561
     73  C          7.2430   42.8290   75.0580 C.2   227  LEU227      0.2260
     74  O          6.2880   43.0150   75.8020 O.2   227  LEU227     -0.2867
     75  CB         9.2920   43.1170   76.4990 C.3   227  LEU227      0.0270
     76  CG        10.5930   42.6060   77.1410 C.3   227  LEU227      0.0019
     77  CD1       11.2450   43.6620   78.0080 C.3   227  LEU227      0.0001
     78  CD2       10.3390   41.3410   77.9440 C.3   227  LEU227      0.0001
     79  N         19.6500   44.6490   83.4860 N.3   253  LEU253     -0.1245
     80  CA        19.0970   43.6350   82.5890 C.3   253  LEU253      0.1561
     81  C         20.2950   42.9720   81.9180 C.2   253  LEU253      0.2260
     82  O         20.9800   43.5750   81.0830 O.2   253  LEU253     -0.2867
     83  CB        18.1480   44.2730   81.5580 C.3   253  LEU253      0.0270
     84  CG        17.2440   43.3030   80.7680 C.3   253  LEU253      0.0019
     85  CD1       16.2950   42.5250   81.6780 C.3   253  LEU253      0.0001
     86  CD2       16.4290   44.0260   79.6810 C.3   253  LEU253      0.0001
     87  N         18.0890   49.8480   73.5060 N.3   260  VAL260     -0.1245
     88  CA        16.9050   50.2000   72.7200 C.3   260  VAL260      0.1561
     89  C         17.2140   50.3780   71.2320 C.2   260  VAL260      0.2260
     90  O         16.3010   50.6140   70.4210 O.2   260  VAL260     -0.2867
     91  CB        16.2390   51.4630   73.2970 C.3   260  VAL260      0.0252
     92  CG1       15.9270   51.2570   74.7860 C.3   260  VAL260      0.0019
     93  CG2       17.1240   52.6710   73.1030 C.3   260  VAL260      0.0019
     94  N         22.4470   46.2340   80.5240 N.3   295  HIS295     -0.1241
     95  CA        21.6790   47.4700   80.4170 C.3   295  HIS295      0.1621
     96  C         21.2950   47.9100   81.8140 C.2   295  HIS295      0.2264
     97  O         20.5880   47.1780   82.5240 O.2   295  HIS295     -0.2867
     98  CB        20.4310   47.1740   79.5900 C.3   295  HIS295      0.0745
     99  CG        19.7290   48.3900   79.0740 C.ar  295  HIS295      0.0817
    100  ND1       18.6140   48.9200   79.6840 N.ar  295  HIS295     -0.2268
    101  CD2       19.9690   49.1570   77.9830 C.ar  295  HIS295      0.1154
    102  CE1       18.1930   49.9650   78.9850 C.ar  295  HIS295      0.1986
    103  NE2       19.0000   50.1310   77.9500 N.ar  295  HIS295     -0.2212
    104  N         19.3600   50.7720   83.9530 N.3   297  ASN297     -0.1240
    105  CA        18.4670   51.9340   84.0190 C.3   297  ASN297      0.1653
    106  C         18.6150   52.5350   85.3990 C.2   297  ASN297      0.2266
    107  O         18.2190   51.9280   86.3710 O.2   297  ASN297     -0.2867
    108  CB        17.0000   51.5860   83.7060 C.3   297  ASN297      0.1155
    109  CG        16.4180   50.5120   84.6060 C.2   297  ASN297      0.2627
    110  OD1       16.7270   49.3340   84.4550 O.2   297  ASN297     -0.2716
    111  ND2       15.5100   50.9080   85.5090 N.am  297  ASN297     -0.0877
    112  N         20.4290   55.3500   80.8100 N.3   307  LEU307     -0.1245
    113  CA        20.3400   53.9610   80.3630 C.3   307  LEU307      0.1561
    114  C         21.7160   53.6530   79.8180 C.2   307  LEU307      0.2260
    115  O         22.0620   54.1480   78.7480 O.2   307  LEU307     -0.2867
    116  CB        19.3050   53.8030   79.2470 C.3   307  LEU307      0.0270
    117  CG        17.8740   54.2240   79.5520 C.3   307  LEU307      0.0019
    118  CD1       16.9630   53.9260   78.3470 C.3   307  LEU307      0.0001
    119  CD2       17.3480   53.5780   80.8340 C.3   307  LEU307      0.0001
    120  N         15.0550   58.4290   72.3640 N.3   352  PHE352     -0.1241
    121  CA        14.7710   59.1210   73.6340 C.3   352  PHE352      0.1605
    122  C         14.9440   60.6430   73.6240 C.2   352  PHE352      0.2264
    123  O         14.8060   61.2960   74.6660 O.2   352  PHE352     -0.2867
    124  CB        15.6020   58.4880   74.7660 C.3   352  PHE352      0.0534
    125  CG        14.9750   57.2600   75.3210 C.ar  352  PHE352     -0.0203
    126  CD1       14.0860   57.3330   76.3850 C.ar  352  PHE352     -0.0042
    127  CD2       15.2140   56.0320   74.7470 C.ar  352  PHE352     -0.0042
    128  CE1       13.4710   56.2030   76.8680 C.ar  352  PHE352     -0.0003
    129  CE2       14.5940   54.8960   75.2370 C.ar  352  PHE352     -0.0003
    130  CZ        13.7320   54.9810   76.2820 C.ar  352  PHE352     -0.0000
    131  N         10.4360   56.2690   71.5760 N.3   358  TRP358     -0.1241
    132  CA        10.2460   55.5800   72.8660 C.3   358  TRP358      0.1605
    133  C          9.7960   56.5680   73.9290 C.2   358  TRP358      0.2264
    134  O          8.8380   56.3050   74.6370 O.2   358  TRP358     -0.2867
    135  CB        11.5250   54.9070   73.3620 C.3   358  TRP358      0.0550
    136  CG        11.9630   53.7020   72.5780 C.ar  358  TRP358      0.0003
    137  CD1       12.3730   53.6770   71.2850 C.ar  358  TRP358      0.0946
    138  CD2       12.1430   52.3720   73.0860 C.ar  358  TRP358      0.0152
    139  NE1       12.7730   52.4030   70.9310 N.ar  358  TRP358     -0.2442
    140  CE2       12.6260   51.5830   72.0200 C.ar  358  TRP358      0.0810
    141  CE3       11.9100   51.7670   74.3310 C.ar  358  TRP358      0.0012
    142  CZ2       12.8970   50.2240   72.1580 C.ar  358  TRP358      0.0191
    143  CZ3       12.1810   50.4090   74.4690 C.ar  358  TRP358      0.0001
    144  CH2       12.6630   49.6540   73.3830 C.ar  358  TRP358      0.0015
    145  N          5.9850   57.5540   76.9140 N.3   362  ASP362     -0.1239
    146  CA         5.9210   57.8450   78.3520 C.3   362  ASP362      0.1674
    147  C          5.1950   59.1400   78.6780 C.2   362  ASP362      0.2266
    148  O          4.8040   59.3400   79.8250 O.2   362  ASP362     -0.2867
    149  CB         7.3270   57.9750   78.9300 C.3   362  ASP362      0.1410
    150  CG         8.0890   56.6880   78.9340 C.2   362  ASP362      0.3668
    151  OD1        9.1160   56.6290   78.2410 O.co2 362  ASP362     -0.2456
    152  OD2        7.7020   55.7770   79.6820 O.co2 362  ASP362     -0.2456
@<TRIPOS>BOND
     1    90    89    2
     2   139   137   ar
     3   139   140   ar
     4    89    88    1
     5   137   136   ar
     6   131   132    1
     7   140   142   ar
     8   140   138   ar
     9   142   144   ar
    10   120   121    1
    11   136   138   ar
    12   136   135    1
    13    88    91    1
    14    88    87    1
    15   132   135    1
    16   132   133    1
    17    60    61    1
    18    53    52    2
    19   138   141   ar
    20    93    91    1
    21    91    92    1
    22   144   143   ar
    23    62    61    1
    24    62    63    2
    25   122   121    1
    26   122   123    2
    27   121   124    1
    28   133   134    2
    29    52    51    1
    30    61    64    1
    31   141   143   ar
    32    71    72    1
    33   127   129   ar
    34   127   125   ar
    35   124   125    1
    36    51    54    1
    37    51    50    1
    38    73    72    1
    39    73    74    2
    40    64    65    1
    41   129   130   ar
    42   125   126   ar
    43    54    55    1
    44    72    75    1
    45    56    55   ar
    46    56    58   ar
    47    65    67   ar
    48    65    66   ar
    49    67    69   ar
    50    55    57   ar
    51   130   128   ar
    52    66    68   ar
    53   126   128   ar
    54    69    70   ar
    55    75    76    1
    56    58    59   ar
    57   145   146    1
    58    68    70   ar
    59    76    78    1
    60    76    77    1
    61    46    45    2
    62    57    59   ar
    63   103   101   ar
    64   103   102   ar
    65   101    99   ar
    66    48    47    1
    67   151   150   ar
    68   118   117    1
    69   146   147    1
    70   146   149    1
    71    45    44    1
    72   147   148    2
    73   115   114    2
    74   149   150    1
    75   150   152   ar
    76   102   100   ar
    77    99    98    1
    78    99   100   ar
    79   116   117    1
    80   116   113    1
    81    44    47    1
    82    44    43    1
    83    47    49    1
    84   117   119    1
    85    98    95    1
    86    86    84    1
    87   114   113    1
    88    36    35    2
    89   113   112    1
    90    95    94    1
    91    95    96    1
    92    19    18   ar
    93    19    17   ar
    94    43    35   am
    95    84    83    1
    96    84    85    1
    97    42    40   ar
    98    42    41   ar
    99    35    34    1
   100    40    38   ar
   101    18    16   ar
   102    82    81    2
   103    83    80    1
   104    17    15   ar
   105    41    39   ar
   106    96    97    2
   107    81    80    1
   108    38    39   ar
   109    38    37    1
   110    34    37    1
   111    34    33    1
   112    16    14   ar
   113    80    79    1
   114    31    30    2
   115     7     6    2
   116    15    14   ar
   117    14    13    1
   118   108   105    1
   119   108   109    1
   120     8     6   am
   121     6     5    1
   122   104   105    1
   123    30    29    1
   124   105   106    1
   125    23    22    2
   126    29    32    1
   127    29    28    1
   128   110   109    2
   129   109   111   am
   130    13    10    1
   131     5     2    1
   132    22    28   am
   133    22    21    1
   134    10     9    1
   135    10    11    1
   136   106   107    2
   137    27    25   ar
   138     9     3   am
   139     4     3    2
   140     3     2    1
   141    25    26   ar
   142    25    24    1
   143    12    11    2
   144     2     1    1
   145    24    21    1
   146    21    20    1
