@<TRIPOS>MOLECULE
tmp/2hmnA00.pdb
 145 139 0 0 0
SMALL
GASTEIGER

@<TRIPOS>ATOM
      1  N         10.6470   56.2830   87.0880 N.3   201  ASN201     -0.1225
      2  CA        10.4580   55.3560   85.9830 C.3   201  ASN201      0.1785
      3  C         11.8030   54.7900   85.5580 C.2   201  ASN201      0.2597
      4  O         11.9430   53.5710   85.4140 O.2   201  ASN201     -0.2718
      5  CB         9.7710   56.0800   84.8340 C.3   201  ASN201      0.1169
      6  CG         9.5130   55.1830   83.6340 C.2   201  ASN201      0.2627
      7  OD1        8.5440   54.3980   83.5990 O.2   201  ASN201     -0.2716
      8  ND2       10.3640   55.2990   82.6510 N.am  201  ASN201     -0.0877
      9  N         12.8020   55.6520   85.3900 N.am  202  PHE202     -0.1976
     10  CA        14.1650   55.2100   85.0800 C.3   202  PHE202      0.1639
     11  C         14.8750   54.4670   86.2240 C.2   202  PHE202      0.2290
     12  O         15.6250   53.5850   85.9880 O.2   202  PHE202     -0.2864
     13  CB        15.0640   56.3610   84.5960 C.3   202  PHE202      0.0560
     14  CG        14.9430   56.6790   83.1330 C.ar  202  PHE202     -0.0200
     15  CD1       13.7650   57.1560   82.6220 C.ar  202  PHE202     -0.0042
     16  CD2       16.0040   56.5630   82.2910 C.ar  202  PHE202     -0.0042
     17  CE1       13.6610   57.4900   81.3190 C.ar  202  PHE202     -0.0003
     18  CE2       15.8790   56.9100   80.9730 C.ar  202  PHE202     -0.0003
     19  CZ        14.6890   57.3510   80.5010 C.ar  202  PHE202     -0.0000
     20  N         11.7280   50.9380   86.8870 N.3   205  ASP205     -0.1225
     21  CA        10.5020   50.5480   86.2760 C.3   205  ASP205      0.1805
     22  C         10.7000   49.7340   85.0190 C.2   205  ASP205      0.2597
     23  O         10.5980   50.2530   83.9440 O.2   205  ASP205     -0.2718
     24  CB         9.6020   51.7520   86.0370 C.3   205  ASP205      0.1424
     25  CG         8.1990   51.3770   85.6610 C.2   205  ASP205      0.3668
     26  OD1        7.9430   50.2440   85.2950 O.co2 205  ASP205     -0.2456
     27  OD2        7.3750   52.2640   85.7060 O.co2 205  ASP205     -0.2456
     28  N         11.0120   48.4590   85.1970 N.am  206  ALA206     -0.1979
     29  CA        11.0460   47.5230   84.0650 C.3   206  ALA206      0.1597
     30  C          9.6470   46.9880   83.7510 C.2   206  ALA206      0.2287
     31  O          9.4030   46.5260   82.6350 O.2   206  ALA206     -0.2864
     32  CB        12.0210   46.3720   84.3230 C.3   206  ALA206      0.0319
     33  N          6.8460   48.4490   83.2390 N.3   208  HIS208     -0.1226
     34  CA         6.0630   49.1950   82.2320 C.3   208  HIS208      0.1752
     35  C          6.5170   48.9050   80.8070 C.2   208  HIS208      0.2595
     36  O          5.7830   49.1830   79.8700 O.2   208  HIS208     -0.2718
     37  CB         6.1330   50.7130   82.4830 C.3   208  HIS208      0.0759
     38  CG         7.3280   51.3730   81.8810 C.ar  208  HIS208      0.0818
     39  ND1        8.6100   51.1570   82.3410 N.ar  208  HIS208     -0.2268
     40  CD2        7.4350   52.2560   80.8610 C.ar  208  HIS208      0.1154
     41  CE1        9.4540   51.8810   81.6270 C.ar  208  HIS208      0.1986
     42  NE2        8.7670   52.5410   80.7090 N.ar  208  HIS208     -0.2212
     43  N          7.7140   48.3530   80.6330 N.am  209  VAL209     -0.1980
     44  CA         8.3660   48.3940   79.3160 C.3   209  VAL209      0.1595
     45  C          7.5470   47.6580   78.2660 C.2   209  VAL209      0.2287
     46  O          7.2420   48.2210   77.2090 O.2   209  VAL209     -0.2864
     47  CB         9.8330   47.9180   79.3780 C.3   209  VAL209      0.0276
     48  CG1       10.4430   47.8010   77.9590 C.3   209  VAL209      0.0022
     49  CG2       10.6380   48.8830   80.2410 C.3   209  VAL209      0.0022
     50  N          5.6810   50.5040   75.9920 N.3   213  HIS213     -0.1241
     51  CA         6.4620   50.5960   74.7700 C.3   213  HIS213      0.1621
     52  C          6.1460   49.4760   73.7770 C.2   213  HIS213      0.2264
     53  O          6.9500   49.1930   72.8840 O.2   213  HIS213     -0.2867
     54  CB         7.9600   50.6380   75.0910 C.3   213  HIS213      0.0745
     55  CG         8.3670   51.8230   75.9150 C.ar  213  HIS213      0.0817
     56  ND1        8.3720   53.1120   75.4180 N.ar  213  HIS213     -0.2268
     57  CD2        8.7810   51.9150   77.2030 C.ar  213  HIS213      0.1154
     58  CE1        8.7710   53.9430   76.3670 C.ar  213  HIS213      0.1986
     59  NE2        9.0360   53.2430   77.4570 N.ar  213  HIS213     -0.2212
     60  N         15.2160   43.6500   73.1720 N.3   224  PHE224     -0.1241
     61  CA        14.1520   43.3120   74.1220 C.3   224  PHE224      0.1605
     62  C         12.7480   43.2980   73.5030 C.2   224  PHE224      0.2264
     63  O         11.7480   43.4030   74.2160 O.2   224  PHE224     -0.2867
     64  CB        14.1970   44.2590   75.2910 C.3   224  PHE224      0.0534
     65  CG        15.5210   44.2960   75.9730 C.ar  224  PHE224     -0.0203
     66  CD1       15.9860   43.1930   76.6640 C.ar  224  PHE224     -0.0042
     67  CD2       16.3060   45.4380   75.9300 C.ar  224  PHE224     -0.0042
     68  CE1       17.2110   43.2350   77.3110 C.ar  224  PHE224     -0.0003
     69  CE2       17.5100   45.4960   76.5880 C.ar  224  PHE224     -0.0003
     70  CZ        17.9640   44.3940   77.2780 C.ar  224  PHE224     -0.0000
     71  N          9.2740   41.4320   74.5510 N.3   227  LEU227     -0.1245
     72  CA         8.3830   41.9240   75.6040 C.3   227  LEU227      0.1561
     73  C          7.1130   42.5980   75.0440 C.2   227  LEU227      0.2260
     74  O          6.1260   42.7370   75.7530 O.2   227  LEU227     -0.2867
     75  CB         9.1340   42.8910   76.5280 C.3   227  LEU227      0.0270
     76  CG        10.4640   42.4160   77.1270 C.3   227  LEU227      0.0019
     77  CD1       11.0240   43.4710   78.0910 C.3   227  LEU227      0.0001
     78  CD2       10.3170   41.0630   77.8210 C.3   227  LEU227      0.0001
     79  N         19.4530   44.4100   83.4150 N.3   253  LEU253     -0.1245
     80  CA        18.9230   43.4040   82.5110 C.3   253  LEU253      0.1561
     81  C         20.1100   42.7400   81.8340 C.2   253  LEU253      0.2260
     82  O         20.7630   43.3250   80.9790 O.2   253  LEU253     -0.2867
     83  CB        17.9910   44.0480   81.4980 C.3   253  LEU253      0.0270
     84  CG        16.9480   43.1370   80.8370 C.3   253  LEU253      0.0019
     85  CD1       15.9350   42.5550   81.8490 C.3   253  LEU253      0.0001
     86  CD2       16.1730   43.9270   79.7630 C.3   253  LEU253      0.0001
     87  N         20.3990   47.4270   73.8790 N.3   259  GLY259     -0.1210
     88  CA        19.3380   48.2280   74.4980 C.3   259  GLY259      0.1956
     89  C         18.1700   48.5880   73.5760 C.2   259  GLY259      0.2611
     90  O         17.6470   47.7320   72.8690 O.2   259  GLY259     -0.2717
     91  N         17.7920   49.8670   73.5770 N.am  260  VAL260     -0.1979
     92  CA        16.6360   50.3400   72.8020 C.3   260  VAL260      0.1595
     93  C         16.8990   50.3820   71.2990 C.2   260  VAL260      0.2287
     94  O         15.9690   50.6200   70.5110 O.2   260  VAL260     -0.2864
     95  CB        16.2320   51.7750   73.2110 C.3   260  VAL260      0.0276
     96  CG1       15.8460   51.8410   74.6790 C.3   260  VAL260      0.0022
     97  CG2       17.3620   52.7430   72.9230 C.3   260  VAL260      0.0022
     98  N         22.2750   46.0050   80.4490 N.3   295  HIS295     -0.1241
     99  CA        21.5320   47.2560   80.3430 C.3   295  HIS295      0.1621
    100  C         21.1750   47.7030   81.7450 C.2   295  HIS295      0.2264
    101  O         20.4880   46.9790   82.4610 O.2   295  HIS295     -0.2867
    102  CB        20.2680   47.0100   79.5220 C.3   295  HIS295      0.0745
    103  CG        19.6190   48.2480   79.0030 C.ar  295  HIS295      0.0817
    104  ND1       18.5770   48.8730   79.6580 N.ar  295  HIS295     -0.2268
    105  CD2       19.8440   48.9600   77.8750 C.ar  295  HIS295      0.1154
    106  CE1       18.1960   49.9260   78.9530 C.ar  295  HIS295      0.1986
    107  NE2       18.9520   50.0050   77.8710 N.ar  295  HIS295     -0.2212
    108  N         19.2770   50.5230   83.8780 N.3   297  ASN297     -0.1240
    109  CA        18.3930   51.7000   83.9500 C.3   297  ASN297      0.1653
    110  C         18.5200   52.3020   85.3420 C.2   297  ASN297      0.2266
    111  O         18.0540   51.7290   86.2940 O.2   297  ASN297     -0.2867
    112  CB        16.9280   51.3590   83.5840 C.3   297  ASN297      0.1155
    113  CG        16.2760   50.3350   84.5010 C.2   297  ASN297      0.2627
    114  OD1       16.5490   49.1310   84.4160 O.2   297  ASN297     -0.2716
    115  ND2       15.3630   50.8010   85.3590 N.am  297  ASN297     -0.0877
    116  N         20.4370   55.1350   80.7690 N.3   307  LEU307     -0.1245
    117  CA        20.3770   53.7260   80.3370 C.3   307  LEU307      0.1561
    118  C         21.7420   53.3840   79.7780 C.2   307  LEU307      0.2260
    119  O         22.0960   53.8350   78.6950 O.2   307  LEU307     -0.2867
    120  CB        19.3280   53.5210   79.2530 C.3   307  LEU307      0.0270
    121  CG        17.9160   53.9990   79.5610 C.3   307  LEU307      0.0019
    122  CD1       17.0400   53.7360   78.3470 C.3   307  LEU307      0.0001
    123  CD2       17.3430   53.3330   80.8100 C.3   307  LEU307      0.0001
    124  N         10.2560   56.0250   71.3840 N.3   358  TRP358     -0.1241
    125  CA        10.0590   55.3410   72.6720 C.3   358  TRP358      0.1605
    126  C          9.5710   56.3180   73.7420 C.2   358  TRP358      0.2264
    127  O          8.6100   56.0430   74.4410 O.2   358  TRP358     -0.2867
    128  CB        11.3440   54.6880   73.1860 C.3   358  TRP358      0.0550
    129  CG        11.8130   53.5070   72.4140 C.ar  358  TRP358      0.0003
    130  CD1       12.1950   53.4700   71.1090 C.ar  358  TRP358      0.0946
    131  CD2       12.0390   52.1910   72.9380 C.ar  358  TRP358      0.0152
    132  NE1       12.6250   52.2020   70.7750 N.ar  358  TRP358     -0.2442
    133  CE2       12.5320   51.3990   71.8810 C.ar  358  TRP358      0.0810
    134  CE3       11.8500   51.6030   74.1950 C.ar  358  TRP358      0.0012
    135  CZ2       12.8470   50.0490   72.0420 C.ar  358  TRP358      0.0191
    136  CZ3       12.1630   50.2590   74.3570 C.ar  358  TRP358      0.0001
    137  CH2       12.6460   49.4980   73.2820 C.ar  358  TRP358      0.0015
    138  N          5.8900   57.3070   76.7780 N.3   362  ASP362     -0.1239
    139  CA         5.8560   57.5730   78.2090 C.3   362  ASP362      0.1674
    140  C          5.1510   58.8730   78.5730 C.2   362  ASP362      0.2266
    141  O          4.7880   59.0480   79.7190 O.2   362  ASP362     -0.2867
    142  CB         7.2830   57.6750   78.7530 C.3   362  ASP362      0.1410
    143  CG         7.9750   56.3390   78.8570 C.2   362  ASP362      0.3668
    144  OD1        7.4970   55.4450   79.5880 O.co2 362  ASP362     -0.2456
    145  OD2        9.0390   56.2050   78.2430 O.co2 362  ASP362     -0.2456
@<TRIPOS>BOND
     1    94    93    2
     2   132   130   ar
     3   132   133   ar
     4   130   129   ar
     5    93    92    1
     6   124   125    1
     7   133   135   ar
     8   133   131   ar
     9   135   137   ar
    10   129   131   ar
    11   129   128    1
    12   125   128    1
    13   125   126    1
    14    92    95    1
    15    92    91    1
    16    90    89    2
    17    53    52    2
    18    97    95    1
    19   131   134   ar
    20    60    61    1
    21    95    96    1
    22   137   136   ar
    23    62    61    1
    24    62    63    2
    25    89    91   am
    26    89    88    1
    27   126   127    2
    28    52    51    1
    29    87    88    1
    30    61    64    1
    31   134   136   ar
    32    71    72    1
    33    51    54    1
    34    51    50    1
    35    73    72    1
    36    73    74    2
    37    54    55    1
    38    64    65    1
    39    56    55   ar
    40    56    58   ar
    41    72    75    1
    42    55    57   ar
    43    67    65   ar
    44    67    69   ar
    45    65    66   ar
    46    58    59   ar
    47    75    76    1
    48    69    70   ar
    49    66    68   ar
    50   138   139    1
    51    76    78    1
    52    76    77    1
    53    57    59   ar
    54    46    45    2
    55    70    68   ar
    56   107   105   ar
    57   107   106   ar
    58   105   103   ar
    59    48    47    1
    60   139   140    1
    61   139   142    1
    62   145   143   ar
    63    45    44    1
    64   122   121    1
    65   140   141    2
    66   119   118    2
    67   142   143    1
    68   143   144   ar
    69   106   104   ar
    70   103   102    1
    71   103   104   ar
    72   120   121    1
    73   120   117    1
    74    44    47    1
    75    44    43    1
    76    47    49    1
    77   102    99    1
    78   121   123    1
    79    86    84    1
    80   118   117    1
    81    36    35    2
    82   117   116    1
    83    99    98    1
    84    99   100    1
    85    19    18   ar
    86    19    17   ar
    87    43    35   am
    88    42    40   ar
    89    42    41   ar
    90    35    34    1
    91    84    83    1
    92    84    85    1
    93    40    38   ar
    94    18    16   ar
    95    82    81    2
    96    17    15   ar
    97    83    80    1
    98    41    39   ar
    99   100   101    2
   100    81    80    1
   101    38    39   ar
   102    38    37    1
   103    34    37    1
   104    34    33    1
   105    16    14   ar
   106    80    79    1
   107    15    14   ar
   108    31    30    2
   109     8     6   am
   110    14    13    1
   111   112   109    1
   112   112   113    1
   113     7     6    2
   114     6     5    1
   115    30    29    1
   116   108   109    1
   117    23    22    2
   118   109   110    1
   119    29    32    1
   120    29    28    1
   121   114   113    2
   122   113   115   am
   123    13    10    1
   124     5     2    1
   125    22    28   am
   126    22    21    1
   127    10     9    1
   128    10    11    1
   129    26    25   ar
   130   110   111    2
   131     9     3   am
   132     4     3    2
   133     3     2    1
   134    25    27   ar
   135    25    24    1
   136     2     1    1
   137    12    11    2
   138    24    21    1
   139    21    20    1
