@<TRIPOS>MOLECULE
tmp/2hmvB00.pdb
 155 149 0 0 0
SMALL
GASTEIGER

@<TRIPOS>ATOM
      1  N        114.3040   34.3650   37.6920 N.3     6  ILE6       -0.1231
      2  CA       115.5550   35.0810   37.9450 C.3     6  ILE6        0.1692
      3  C        115.6040   36.3360   37.0860 C.2     6  ILE6        0.2593
      4  O        115.6220   36.2610   35.8510 O.2     6  ILE6       -0.2718
      5  CB       116.7680   34.2120   37.6050 C.3     6  ILE6        0.0266
      6  CG1      116.7490   32.9450   38.4580 C.3     6  ILE6        0.0019
      7  CG2      118.0600   34.9960   37.8440 C.3     6  ILE6        0.0020
      8  CD1      117.8690   31.9840   38.1550 C.3     6  ILE6        0.0001
      9  N        115.6330   37.4910   37.7410 N.am    7  GLY7       -0.1942
     10  CA       115.6670   38.7480   37.0210 C.3     7  GLY7        0.2014
     11  C        114.2790   39.3270   37.1010 C.2     7  GLY7        0.2639
     12  O        113.3740   38.8650   36.4110 O.2     7  GLY7       -0.2714
     13  N        114.1040   40.3380   37.9430 N.am    8  LEU8       -0.1963
     14  CA       112.7990   40.9400   38.1390 C.3     8  LEU8        0.1728
     15  C        112.6110   42.2840   37.4640 C.2     8  LEU8        0.2617
     16  O        112.3560   43.2910   38.1200 O.2     8  LEU8       -0.2715
     17  CB       112.5200   41.0590   39.6430 C.3     8  LEU8        0.0311
     18  CG       112.7990   39.7570   40.4070 C.3     8  LEU8        0.0022
     19  CD1      112.4650   39.9320   41.8770 C.3     8  LEU8        0.0001
     20  CD2      111.9830   38.6200   39.8090 C.3     8  LEU8        0.0001
     21  N        112.7330   42.2910   36.1430 N.am    9  GLY9       -0.1940
     22  CA       112.5270   43.5100   35.3920 C.3     9  GLY9        0.2014
     23  C        111.0450   43.5810   35.0910 C.2     9  GLY9        0.2639
     24  O        110.2450   42.9890   35.8140 O.2     9  GLY9       -0.2714
     25  N        110.6730   44.2910   34.0330 N.am   10  ARG10      -0.1963
     26  CA       109.2710   44.4160   33.6570 C.3    10  ARG10       0.1729
     27  C        108.7640   43.0390   33.2560 C.2    10  ARG10       0.2616
     28  O        107.6910   42.6230   33.6710 O.2    10  ARG10      -0.2715
     29  CB       109.1180   45.4010   32.4870 C.3    10  ARG10       0.0348
     30  CG       109.5460   46.8430   32.8190 C.3    10  ARG10       0.0492
     31  CD       110.0360   47.6010   31.5810 C.3    10  ARG10       0.2205
     32  NE       108.9630   48.0280   30.6820 N.pl3  10  ARG10      -0.0865
     33  CZ       108.2010   49.1050   30.8720 C.cat  10  ARG10       0.5346
     34  NH1      108.3910   49.8800   31.9330 N.pl3  10  ARG10       0.1354
     35  NH2      107.2430   49.4070   30.0040 N.pl3  10  ARG10       0.1354
     36  N        109.5470   42.3260   32.4530 N.am   11  PHE11      -0.1974
     37  CA       109.1640   40.9920   32.0140 C.3    11  PHE11       0.1639
     38  C        109.1100   40.0310   33.2000 C.2    11  PHE11       0.2290
     39  O        108.0600   39.4860   33.5130 O.2    11  PHE11      -0.2864
     40  CB       110.1590   40.4710   30.9750 C.3    11  PHE11       0.0560
     41  CG       109.8860   39.0570   30.5260 C.ar   11  PHE11      -0.0200
     42  CD1      108.7060   38.7440   29.8560 C.ar   11  PHE11      -0.0042
     43  CD2      110.8090   38.0420   30.7700 C.ar   11  PHE11      -0.0042
     44  CE1      108.4470   37.4410   29.4300 C.ar   11  PHE11      -0.0003
     45  CE2      110.5660   36.7280   30.3500 C.ar   11  PHE11      -0.0003
     46  CZ       109.3770   36.4280   29.6740 C.ar   11  PHE11      -0.0000
     47  N        114.0090   36.1020   42.3630 N.3    29  VAL29      -0.1231
     48  CA       115.4270   36.3800   42.6240 C.3    29  VAL29       0.1692
     49  C        116.0060   37.4680   41.7210 C.2    29  VAL29       0.2592
     50  O        115.6190   37.5870   40.5640 O.2    29  VAL29      -0.2718
     51  CB       116.2590   35.0830   42.4650 C.3    29  VAL29       0.0266
     52  CG1      115.8970   34.4010   41.1720 C.3    29  VAL29       0.0020
     53  CG2      117.7510   35.3950   42.4840 C.3    29  VAL29       0.0020
     54  N        116.9270   38.2610   42.2600 N.am   30  ASP30      -0.1960
     55  CA       117.5760   39.3370   41.5020 C.3    30  ASP30       0.1840
     56  C        118.8400   39.7680   42.2610 C.2    30  ASP30       0.2622
     57  O        118.9070   39.6020   43.4760 O.2    30  ASP30      -0.2715
     58  CB       116.6170   40.5220   41.3520 C.3    30  ASP30       0.1450
     59  CG       117.0650   41.5140   40.2920 C.2    30  ASP30       0.3671
     60  OD1      116.3530   41.6750   39.2770 O.co2  30  ASP30      -0.2456
     61  OD2      118.1250   42.1440   40.4740 O.co2  30  ASP30      -0.2456
     62  N        119.8450   40.2970   41.5620 N.am   31  ILE31      -0.1963
     63  CA       121.0720   40.7350   42.2350 C.3    31  ILE31       0.1727
     64  C        120.8580   42.0580   42.9470 C.2    31  ILE31       0.2616
     65  O        121.6450   42.4430   43.8080 O.2    31  ILE31      -0.2715
     66  CB       122.2450   40.9870   41.2650 C.3    31  ILE31       0.0290
     67  CG1      121.7730   41.8650   40.1070 C.3    31  ILE31       0.0022
     68  CG2      122.8630   39.6990   40.8460 C.3    31  ILE31       0.0023
     69  CD1      122.8900   42.3480   39.2120 C.3    31  ILE31       0.0001
     70  N        119.8070   42.7620   42.5530 N.am   32  ASN32      -0.1972
     71  CA       119.4890   44.0650   43.1190 C.3    32  ASN32       0.1688
     72  C        118.4160   43.9780   44.1980 C.2    32  ASN32       0.2292
     73  O        117.2860   43.5710   43.9260 O.2    32  ASN32      -0.2864
     74  CB       119.0250   45.0080   42.0120 C.3    32  ASN32       0.1181
     75  CG       118.7310   46.3980   42.5260 C.2    32  ASN32       0.2629
     76  OD1      119.5690   47.0100   43.1820 O.2    32  ASN32      -0.2716
     77  ND2      117.5450   46.9060   42.2270 N.am   32  ASN32      -0.0877
     78  N        115.0580   45.5660   43.5580 N.3    35  LYS35      -0.1245
     79  CA       114.1570   44.7930   42.7100 C.3    35  LYS35       0.1561
     80  C        113.4900   43.7000   43.5300 C.2    35  LYS35       0.2260
     81  O        112.2880   43.4570   43.4070 O.2    35  LYS35      -0.2867
     82  CB       114.9200   44.1560   41.5440 C.3    35  LYS35       0.0271
     83  CG       115.2890   45.1160   40.4270 C.3    35  LYS35       0.0035
     84  CD       114.0540   45.7090   39.7630 C.3    35  LYS35       0.0206
     85  CE       114.4170   46.4870   38.5040 C.3    35  LYS35       0.1093
     86  NZ       115.3480   47.6170   38.7740 N.3    35  LYS35      -0.1314
     87  N        120.3590   37.6410   45.0070 N.3    49  ALA49      -0.1231
     88  CA       121.4280   36.7330   44.6230 C.3    49  ALA49       0.1694
     89  C        121.9490   36.9960   43.2200 C.2    49  ALA49       0.2592
     90  O        121.2220   37.4900   42.3560 O.2    49  ALA49      -0.2718
     91  CB       120.9340   35.2940   44.7190 C.3    49  ALA49       0.0304
     92  N        123.2220   36.6690   43.0140 N.am   50  ASN50      -0.1960
     93  CA       123.8570   36.8210   41.7140 C.3    50  ASN50       0.1819
     94  C        123.7270   35.4330   41.1160 C.2    50  ASN50       0.2621
     95  O        124.3840   34.4910   41.5600 O.2    50  ASN50      -0.2715
     96  CB       125.3300   37.1910   41.8670 C.3    50  ASN50       0.1195
     97  CG       126.0180   37.4100   40.5310 C.2    50  ASN50       0.2630
     98  OD1      125.5330   36.9630   39.4820 O.2    50  ASN50      -0.2716
     99  ND2      127.1640   38.0940   40.5620 N.am   50  ASN50      -0.0877
    100  N        122.8660   35.3190   40.1130 N.am   51  ALA51      -0.1963
    101  CA       122.5870   34.0450   39.4610 C.3    51  ALA51       0.1728
    102  C        123.7760   33.3870   38.7620 C.2    51  ALA51       0.2616
    103  O        123.7160   32.2070   38.4030 O.2    51  ALA51      -0.2715
    104  CB       121.4280   34.2240   38.4800 C.3    51  ALA51       0.0334
    105  N        124.8530   34.1410   38.5610 N.am   52  THR52      -0.1951
    106  CA       126.0420   33.5930   37.9110 C.3    52  THR52       0.1897
    107  C        126.9440   32.8650   38.9110 C.2    52  THR52       0.2313
    108  O        127.8770   32.1700   38.5160 O.2    52  THR52      -0.2863
    109  CB       126.8740   34.6980   37.2290 C.3    52  THR52       0.1794
    110  OG1      127.3020   35.6490   38.2090 O.3    52  THR52      -0.2208
    111  CG2      126.0540   35.4090   36.1650 C.3    52  THR52       0.0378
    112  N        115.1970   35.8070   33.2060 N.3    71  ALA71      -0.1231
    113  CA       114.7010   37.0520   32.6470 C.3    71  ALA71       0.1694
    114  C        115.6900   38.1960   32.8030 C.2    71  ALA71       0.2592
    115  O        115.2960   39.3520   32.9450 O.2    71  ALA71      -0.2718
    116  CB       113.3680   37.4170   33.3030 C.3    71  ALA71       0.0304
    117  N        116.9740   37.8640   32.8070 N.am   72  ILE72      -0.1966
    118  CA       118.0120   38.8800   32.8890 C.3    72  ILE72       0.1727
    119  C        117.8170   39.6460   31.5940 C.2    72  ILE72       0.2617
    120  O        117.4630   39.0530   30.5700 O.2    72  ILE72      -0.2715
    121  CB       119.4280   38.2680   32.8480 C.3    72  ILE72       0.0290
    122  CG1      119.5880   37.2170   33.9450 C.3    72  ILE72       0.0022
    123  CG2      120.4700   39.3710   32.9700 C.3    72  ILE72       0.0023
    124  CD1      119.1510   37.6720   35.2810 C.3    72  ILE72       0.0001
    125  N        118.0460   40.9520   31.6270 N.am   73  GLY73      -0.1940
    126  CA       117.8710   41.7510   30.4270 C.3    73  GLY73       0.2014
    127  C        119.1820   42.1410   29.7670 C.2    73  GLY73       0.2639
    128  O        119.8710   41.3010   29.1850 O.2    73  GLY73      -0.2714
    129  N        119.5320   43.4160   29.8750 N.am   74  ALA74      -0.1963
    130  CA       120.7480   43.9480   29.2700 C.3    74  ALA74       0.1728
    131  C        122.0290   43.1530   29.5220 C.2    74  ALA74       0.2616
    132  O        122.8560   43.0410   28.6240 O.2    74  ALA74      -0.2715
    133  CB       120.9440   45.4120   29.6930 C.3    74  ALA74       0.0334
    134  N        122.2170   42.6100   30.7220 N.am   75  ASN75      -0.1972
    135  CA       123.4400   41.8490   30.9710 C.3    75  ASN75       0.1688
    136  C        123.3850   40.4960   30.2690 C.2    75  ASN75       0.2292
    137  O        123.1790   39.4630   30.9060 O.2    75  ASN75      -0.2864
    138  CB       123.6610   41.6220   32.4640 C.3    75  ASN75       0.1181
    139  CG       125.1410   41.4560   32.8140 C.2    75  ASN75       0.2629
    140  OD1      125.9310   40.8620   32.0510 O.2    75  ASN75      -0.2716
    141  ND2      125.5240   41.9770   33.9780 N.am   75  ASN75      -0.0877
    142  N        125.5560   37.5970   31.7560 N.3    78  ALA78      -0.1245
    143  CA       125.0280   36.9680   32.9780 C.3    78  ALA78       0.1562
    144  C        123.9160   35.9900   32.6090 C.2    78  ALA78       0.2260
    145  O        123.8080   34.8970   33.1730 O.2    78  ALA78      -0.2867
    146  CB       124.4780   38.0280   33.9390 C.3    78  ALA78       0.0290
    147  N        114.5940   34.6720   28.3440 N.3    97  LYS97      -0.1245
    148  CA       114.2140   35.7950   27.5220 C.3    97  LYS97       0.1561
    149  C        115.4670   36.0880   26.7020 C.2    97  LYS97       0.2260
    150  O        116.5570   36.2000   27.2520 O.2    97  LYS97      -0.2867
    151  CB       113.8700   37.0140   28.3960 C.3    97  LYS97       0.0271
    152  CG       113.3550   38.2170   27.6070 C.3    97  LYS97       0.0035
    153  CD       113.1930   39.4560   28.4810 C.3    97  LYS97       0.0206
    154  CE       114.5370   40.0170   28.9630 C.3    97  LYS97       0.1093
    155  NZ       114.3870   41.3830   29.5470 N.3    97  LYS97      -0.1314
@<TRIPOS>BOND
     1   149   150    2
     2   149   148    1
     3   148   147    1
     4   148   151    1
     5   152   151    1
     6   152   153    1
     7   153   154    1
     8   132   131    2
     9   154   155    1
    10   128   127    2
    11   130   131    1
    12   130   133    1
    13   130   129    1
    14    44    46   ar
    15    44    42   ar
    16   131   134   am
    17    46    45   ar
    18   127   129   am
    19   127   126    1
    20    42    41   ar
    21    35    33    1
    22   136   137    2
    23   136   135    1
    24    45    43   ar
    25   126   125    1
    26    41    43   ar
    27    41    40    1
    28   120   119    2
    29    32    33    2
    30    32    31    1
    31   134   135    1
    32    33    34    1
    33   135   138    1
    34    40    37    1
    35    31    30    1
    36   119   125   am
    37   119   118    1
    38   142   143    1
    39    37    36    1
    40    37    38    1
    41   140   139    2
    42    36    27   am
    43   138   139    1
    44    29    30    1
    45    29    26    1
    46   144   143    1
    47   144   145    2
    48   113   114    1
    49   113   112    1
    50   113   116    1
    51   114   117   am
    52   114   115    2
    53   117   118    1
    54   139   141   am
    55   121   118    1
    56   121   123    1
    57   121   122    1
    58   143   146    1
    59    38    39    2
    60    27    26    1
    61    27    28    2
    62    26    25    1
    63   122   124    1
    64    25    23   am
    65    23    22    1
    66    23    24    2
    67    22    21    1
    68     4     3    2
    69    21    15   am
    70   111   109    1
    71    12    11    2
    72    10    11    1
    73    10     9    1
    74     3     9   am
    75     3     2    1
    76    11    13   am
    77   109   106    1
    78   109   110    1
    79    15    16    2
    80    15    14    1
    81     5     7    1
    82     5     2    1
    83     5     6    1
    84     1     2    1
    85   106   105    1
    86   106   107    1
    87    13    14    1
    88    14    17    1
    89     8     6    1
    90   103   102    2
    91   104   101    1
    92    85    86    1
    93    85    84    1
    94   108   107    2
    95   105   102   am
    96   102   101    1
    97    69    67    1
    98    60    59   ar
    99   101   100    1
   100    98    97    2
   101    17    18    1
   102    84    83    1
   103    20    18    1
   104    67    66    1
   105   100    94   am
   106    59    61   ar
   107    59    58    1
   108    18    19    1
   109    83    82    1
   110    97    99   am
   111    97    96    1
   112    50    49    2
   113    68    66    1
   114    94    95    2
   115    94    93    1
   116    52    51    1
   117    66    63    1
   118    58    55    1
   119    55    54    1
   120    55    56    1
   121    82    79    1
   122    62    63    1
   123    62    56   am
   124    93    96    1
   125    93    92    1
   126    49    54   am
   127    49    48    1
   128    74    75    1
   129    74    71    1
   130    77    75   am
   131    63    64    1
   132    56    57    2
   133    90    89    2
   134    47    48    1
   135    51    53    1
   136    51    48    1
   137    75    76    2
   138    70    64   am
   139    70    71    1
   140    79    80    1
   141    79    78    1
   142    64    65    2
   143    92    89   am
   144    71    72    1
   145    89    88    1
   146    81    80    2
   147    73    72    2
   148    88    91    1
   149    88    87    1
