@<TRIPOS>MOLECULE
tmp/2hn9F00.pdb
 139 132 0 0 0
SMALL
GASTEIGER

@<TRIPOS>ATOM
      1  N         -4.1130  -29.1650    1.4040 N.3    67  ILE67      -0.1245
      2  CA        -4.8470  -27.9720    0.9960 C.3    67  ILE67       0.1561
      3  C         -4.0200  -26.7170    1.2720 C.2    67  ILE67       0.2260
      4  O         -3.5370  -26.5150    2.3870 O.2    67  ILE67      -0.2867
      5  CB        -6.2350  -27.8780    1.6900 C.3    67  ILE67       0.0252
      6  CG1       -7.1740  -28.9710    1.1660 C.3    67  ILE67       0.0019
      7  CG2       -6.8660  -26.5000    1.4810 C.3    67  ILE67       0.0019
      8  CD1       -8.4730  -29.1110    1.9560 C.3    67  ILE67       0.0001
      9  N         -0.1060  -30.0370  -11.4770 N.3    89  ARG89      -0.1245
     10  CA        -1.1430  -30.0750  -10.4610 C.3    89  ARG89       0.1563
     11  C         -2.4800  -30.5160  -11.0350 C.2    89  ARG89       0.2260
     12  O         -2.9060  -30.0560  -12.0990 O.2    89  ARG89      -0.2867
     13  CB        -1.2820  -28.7250   -9.7530 C.3    89  ARG89       0.0307
     14  CG        -2.4060  -28.6970   -8.7360 C.3    89  ARG89       0.0489
     15  CD        -2.4080  -27.4490   -7.8690 C.3    89  ARG89       0.2205
     16  NE        -3.7760  -26.9680   -7.6750 N.pl3  89  ARG89      -0.0865
     17  CZ        -4.7150  -27.5970   -6.9690 C.cat  89  ARG89       0.5346
     18  NH1       -4.4510  -28.7490   -6.3590 N.pl3  89  ARG89       0.1354
     19  NH2       -5.9270  -27.0690   -6.8740 N.pl3  89  ARG89       0.1354
     20  N         -9.5640  -30.1070   -7.7180 N.3    92  THR92      -0.1203
     21  CA       -10.9890  -29.8780   -7.9140 C.3    92  THR92       0.1994
     22  C        -11.2200  -28.3780   -7.8320 C.2    92  THR92       0.2619
     23  O        -10.4110  -27.6490   -7.2500 O.2    92  THR92      -0.2717
     24  CB       -11.8390  -30.5860   -6.8460 C.3    92  THR92       0.1784
     25  OG1      -11.3330  -30.2640   -5.5460 O.3    92  THR92      -0.2211
     26  CG2      -11.8030  -32.0980   -7.0390 C.3    92  THR92       0.0376
     27  N        -12.3210  -27.9130   -8.4120 N.am   93  THR93      -0.1938
     28  CA       -12.5560  -26.4800   -8.5060 C.3    93  THR93       0.2028
     29  C        -14.0370  -26.1110   -8.5440 C.2    93  THR93       0.2642
     30  O        -14.8910  -26.9270   -8.9060 O.2    93  THR93      -0.2714
     31  CB       -11.8030  -25.8670   -9.7250 C.3    93  THR93       0.1808
     32  OG1      -11.8560  -24.4390   -9.6550 O.3    93  THR93      -0.2208
     33  CG2      -12.3940  -26.3460  -11.0560 C.3    93  THR93       0.0379
     34  N        -14.3240  -24.8760   -8.1430 N.am   94  GLY94      -0.1954
     35  CA       -15.6450  -24.2890   -8.3000 C.3    94  GLY94       0.1869
     36  C        -15.6030  -23.2410   -9.3920 C.2    94  GLY94       0.2309
     37  O        -14.8670  -22.2580   -9.2870 O.2    94  GLY94      -0.2863
     38  N        -11.1630  -21.3870    1.6330 N.3   160  PHE160     -0.1241
     39  CA       -12.2640  -22.0400    0.9360 C.3   160  PHE160      0.1605
     40  C        -13.5160  -21.1770    1.0540 C.2   160  PHE160      0.2264
     41  O        -14.3720  -21.1860    0.1660 O.2   160  PHE160     -0.2867
     42  CB       -12.5050  -23.4270    1.5520 C.3   160  PHE160      0.0534
     43  CG       -13.6150  -24.2170    0.9040 C.ar  160  PHE160     -0.0203
     44  CD1      -14.9210  -24.1360    1.3860 C.ar  160  PHE160     -0.0042
     45  CD2      -13.3490  -25.0690   -0.1640 C.ar  160  PHE160     -0.0042
     46  CE1      -15.9480  -24.8760    0.8000 C.ar  160  PHE160     -0.0003
     47  CE2      -14.3680  -25.8140   -0.7570 C.ar  160  PHE160     -0.0003
     48  CZ       -15.6700  -25.7170   -0.2760 C.ar  160  PHE160     -0.0000
     49  N        -13.3860  -17.0000   -1.2820 N.3   164  GLN164     -0.1245
     50  CA       -14.1900  -17.4530   -2.4130 C.3   164  GLN164      0.1566
     51  C        -15.6150  -16.9040   -2.3040 C.2   164  GLN164      0.2260
     52  O        -16.5390  -17.3970   -2.9550 O.2   164  GLN164     -0.2867
     53  CB       -14.1580  -18.9810   -2.5080 C.3   164  GLN164      0.0367
     54  CG       -12.7440  -19.5170   -2.7220 C.3   164  GLN164      0.0905
     55  CD       -12.6790  -21.0150   -2.9490 C.2   164  GLN164      0.2608
     56  OE1      -13.5910  -21.6170   -3.5160 O.2   164  GLN164     -0.2717
     57  NE2      -11.5780  -21.6210   -2.5240 N.am  164  GLN164     -0.0878
     58  N        -17.9080  -17.1320    0.0540 N.3   166  ARG166     -0.1245
     59  CA       -18.9270  -18.0510    0.5430 C.3   166  ARG166      0.1563
     60  C        -19.6080  -17.4780    1.7800 C.2   166  ARG166      0.2260
     61  O        -18.9450  -16.9450    2.6740 O.2   166  ARG166     -0.2867
     62  CB       -18.3220  -19.4220    0.8550 C.3   166  ARG166      0.0307
     63  CG       -18.1560  -20.3180   -0.3600 C.3   166  ARG166      0.0489
     64  CD       -17.8370  -21.7510    0.0480 C.3   166  ARG166      0.2205
     65  NE       -18.0920  -22.6950   -1.0400 N.pl3 166  ARG166     -0.0865
     66  CZ       -17.1910  -23.0850   -1.9390 C.cat 166  ARG166      0.5346
     67  NH1      -15.9460  -22.6250   -1.8970 N.pl3 166  ARG166      0.1354
     68  NH2      -17.5380  -23.9480   -2.8850 N.pl3 166  ARG166      0.1354
     69  N        -12.3790  -20.9590   -8.9410 N.3   193  TYR193     -0.1227
     70  CA       -11.7030  -20.8430   -7.6560 C.3   193  TYR193      0.1736
     71  C        -11.0320  -22.1640   -7.2890 C.2   193  TYR193      0.2595
     72  O        -11.6580  -23.2270   -7.3440 O.2   193  TYR193     -0.2718
     73  CB       -12.7060  -20.5470   -6.5390 C.3   193  TYR193      0.0548
     74  CG       -13.1370  -19.1110   -6.3340 C.ar  193  TYR193     -0.0200
     75  CD1      -12.2110  -18.1000   -6.0610 C.ar  193  TYR193     -0.0009
     76  CD2      -14.4890  -18.7780   -6.3370 C.ar  193  TYR193     -0.0009
     77  CE1      -12.6280  -16.7840   -5.8440 C.ar  193  TYR193      0.0417
     78  CE2      -14.9140  -17.4770   -6.1200 C.ar  193  TYR193      0.0417
     79  CZ       -13.9860  -16.4840   -5.8770 C.ar  193  TYR193      0.1957
     80  OH       -14.4260  -15.1970   -5.6640 O.3   193  TYR193     -0.2866
     81  N         -9.7630  -22.0900   -6.9090 N.am  194  GLU194     -0.1965
     82  CA        -9.1160  -23.1660   -6.1580 C.3   194  GLU194      0.1733
     83  C         -8.1430  -22.5490   -5.1480 C.2   194  GLU194      0.2616
     84  O         -8.2150  -21.3440   -4.8830 O.2   194  GLU194     -0.2715
     85  CB        -8.4770  -24.2250   -7.0770 C.3   194  GLU194      0.0429
     86  CG        -7.4910  -23.6970   -8.1090 C.3   194  GLU194      0.1163
     87  CD        -6.1300  -23.4200   -7.5150 C.2   194  GLU194      0.3649
     88  OE1       -5.3930  -24.3820   -7.2150 O.co2 194  GLU194     -0.2457
     89  OE2       -5.8000  -22.2320   -7.3410 O.co2 194  GLU194     -0.2457
     90  N         -7.2470  -23.3510   -4.5790 N.am  195  MET195     -0.1963
     91  CA        -6.4910  -22.8980   -3.4120 C.3   195  MET195      0.1736
     92  C         -4.9790  -23.1430   -3.4370 C.2   195  MET195      0.2616
     93  O         -4.3030  -22.9250   -2.4290 O.2   195  MET195     -0.2715
     94  CB        -7.0930  -23.5130   -2.1450 C.3   195  MET195      0.0427
     95  CG        -8.5120  -23.0460   -1.8330 C.3   195  MET195      0.0599
     96  SD        -9.1720  -23.7740   -0.3250 S.3   195  MET195     -0.1393
     97  CE        -8.0470  -23.0700    0.8870 C.3   195  MET195      0.0692
     98  N         -4.4440  -23.5880   -4.5720 N.am  196  GLU196     -0.1977
     99  CA        -3.0310  -23.9830   -4.6280 C.3   196  GLU196      0.1602
    100  C         -2.2330  -23.4020   -5.7990 C.2   196  GLU196      0.2287
    101  O         -1.0060  -23.2860   -5.7110 O.2   196  GLU196     -0.2864
    102  CB        -2.8950  -25.5140   -4.6130 C.3   196  GLU196      0.0415
    103  CG        -3.3140  -26.1930   -3.2990 C.3   196  GLU196      0.1163
    104  CD        -4.8190  -26.3910   -3.1690 C.2   196  GLU196      0.3649
    105  OE1       -5.5160  -26.4330   -4.2060 O.co2 196  GLU196     -0.2457
    106  OE2       -5.3090  -26.5100   -2.0240 O.co2 196  GLU196     -0.2457
    107  N        -16.4510  -29.3320   -9.8640 N.3   218  ILE218     -0.1231
    108  CA       -17.3620  -30.1000   -9.0090 C.3   218  ILE218      0.1692
    109  C        -18.5900  -29.2920   -8.5770 C.2   218  ILE218      0.2591
    110  O        -19.5500  -29.8490   -8.0390 O.2   218  ILE218     -0.2718
    111  CB       -16.6440  -30.7090   -7.7660 C.3   218  ILE218      0.0266
    112  CG1      -15.9710  -29.6200   -6.9200 C.3   218  ILE218      0.0019
    113  CG2      -15.6450  -31.7890   -8.1990 C.3   218  ILE218      0.0020
    114  CD1      -15.6510  -30.0460   -5.4850 C.3   218  ILE218      0.0001
    115  N        -18.5490  -27.9840   -8.8220 N.am  219  VAL219     -0.1980
    116  CA       -19.6530  -27.0800   -8.4890 C.3   219  VAL219      0.1595
    117  C        -19.6000  -25.8090   -9.3450 C.2   219  VAL219      0.2287
    118  O        -18.5180  -25.3260   -9.6910 O.2   219  VAL219     -0.2864
    119  CB       -19.6730  -26.7280   -6.9630 C.3   219  VAL219      0.0276
    120  CG1      -18.4920  -25.8340   -6.5660 C.3   219  VAL219      0.0022
    121  CG2      -20.9970  -26.0960   -6.5570 C.3   219  VAL219      0.0022
    122  N        -20.6150  -21.9340   -9.0940 N.3   221  ARG221     -0.1245
    123  CA       -20.9000  -20.9610   -8.0390 C.3   221  ARG221      0.1563
    124  C        -21.9700  -19.9270   -8.3930 C.2   221  ARG221      0.2260
    125  O        -22.4760  -19.2320   -7.5090 O.2   221  ARG221     -0.2867
    126  CB       -19.6080  -20.2740   -7.5860 C.3   221  ARG221      0.0307
    127  CG       -18.6120  -21.2040   -6.8830 C.3   221  ARG221      0.0489
    128  CD       -19.0950  -21.6360   -5.4930 C.3   221  ARG221      0.2205
    129  NE       -19.5550  -20.5030   -4.6880 N.pl3 221  ARG221     -0.0865
    130  CZ       -18.7540  -19.6550   -4.0450 C.cat 221  ARG221      0.5346
    131  NH1      -17.4350  -19.7990   -4.0990 N.pl3 221  ARG221      0.1354
    132  NH2      -19.2750  -18.6540   -3.3470 N.pl3 221  ARG221      0.1354
    133  N        -21.1240  -28.0350   -3.2000 N.3   227  PRO227     -0.2116
    134  CA       -21.0900  -29.1010   -4.2020 C.3   227  PRO227      0.1372
    135  C        -21.8970  -30.3220   -3.7670 C.2   227  PRO227      0.2244
    136  O        -21.8770  -30.6860   -2.5890 O.2   227  PRO227     -0.2868
    137  CB       -19.5990  -29.4610   -4.2870 C.3   227  PRO227      0.0268
    138  CG       -18.8790  -28.2990   -3.7000 C.3   227  PRO227      0.0207
    139  CD       -19.7850  -27.7770   -2.6400 C.3   227  PRO227      0.0892
@<TRIPOS>BOND
     1    12    11    2
     2     9    10    1
     3    33    31    1
     4    11    10    1
     5    10    13    1
     6   107   108    1
     7    13    14    1
     8    31    32    1
     9    31    28    1
    10   118   117    2
    11    36    37    2
    12    36    35    1
    13   117   116    1
    14   122   123    1
    15   108   109    1
    16   108   111    1
    17    69    70    1
    18    30    29    2
    19   115   109   am
    20   115   116    1
    21    14    15    1
    22   109   110    2
    23    29    28    1
    24    29    34   am
    25    28    27    1
    26   116   119    1
    27    27    22   am
    28   124   123    1
    29   124   125    2
    30    35    34    1
    31   113   111    1
    32    86    87    1
    33    86    85    1
    34   123   126    1
    35    21    22    1
    36    21    20    1
    37    21    24    1
    38    15    16    1
    39    22    23    2
    40   111   112    1
    41    16    17    2
    42    70    71    1
    43    70    73    1
    44   126   127    1
    45    87    89   ar
    46    87    88   ar
    47    72    71    2
    48    71    81   am
    49    85    82    1
    50    26    24    1
    51    17    19    1
    52    17    18    1
    53   119   120    1
    54   119   121    1
    55   112   114    1
    56    81    82    1
    57   127   128    1
    58    24    25    1
    59    73    74    1
    60    76    74   ar
    61    76    78   ar
    62    74    75   ar
    63    82    83    1
    64    78    79   ar
    65    75    77   ar
    66    79    77   ar
    67    79    80    1
    68   100   101    2
    69   100    99    1
    70   128   129    1
    71    83    84    2
    72    83    90   am
    73   129   130    2
    74    99   102    1
    75    99    98    1
    76   102   103    1
    77    90    91    1
    78    98    92   am
    79   137   134    1
    80   137   138    1
    81   105   104   ar
    82   134   135    1
    83   134   133    1
    84   131   130    1
    85   130   132    1
    86   135   136    2
    87   138   139    1
    88    56    55    2
    89    92    91    1
    90    92    93    2
    91    91    94    1
    92   103   104    1
    93   133   139    1
    94   104   106   ar
    95    52    51    2
    96    55    54    1
    97    55    57   am
    98    68    66    1
    99    54    53    1
   100    53    50    1
   101    50    51    1
   102    50    49    1
   103    94    95    1
   104    66    67    1
   105    66    65    2
   106    95    96    1
   107    65    64    1
   108    47    48   ar
   109    47    45   ar
   110    63    64    1
   111    63    62    1
   112    96    97    1
   113    48    46   ar
   114    45    43   ar
   115    58    59    1
   116    41    40    2
   117    59    62    1
   118    59    60    1
   119    46    44   ar
   120    43    44   ar
   121    43    42    1
   122    39    40    1
   123    39    42    1
   124    39    38    1
   125     2     3    1
   126     2     1    1
   127     2     5    1
   128     6     5    1
   129     6     8    1
   130     3     4    2
   131     7     5    1
   132    60    61    2
