@<TRIPOS>MOLECULE
tmp/2hncA00.pdb
 114 113 0 0 0
SMALL
GASTEIGER

@<TRIPOS>ATOM
      1  N        -12.6760    6.2340   11.1240 N.3    89  GLN89      -0.1245
      2  CA       -12.3830    5.0780   10.2810 C.3    89  GLN89       0.1566
      3  C        -12.5300    3.7970   11.0680 C.2    89  GLN89       0.2260
      4  O        -12.6350    3.8220   12.2900 O.2    89  GLN89      -0.2867
      5  CB       -10.9370    5.1500    9.7640 C.3    89  GLN89       0.0367
      6  CG        -9.8730    5.1580   10.8900 C.3    89  GLN89       0.0905
      7  CD        -9.1130    3.8420   11.0400 C.2    89  GLN89       0.2608
      8  OE1       -9.7020    2.7650   11.0670 O.2    89  GLN89      -0.2717
      9  NE2       -7.7930    3.9330   11.1520 N.am   89  GLN89      -0.0878
     10  N        -11.1580   -0.5440   10.8370 N.3    91  HIS91      -0.1241
     11  CA       -10.2860   -1.5060   10.1900 C.3    91  HIS91       0.1621
     12  C        -10.3330   -2.7620   11.0320 C.2    91  HIS91       0.2264
     13  O        -10.9820   -2.7890   12.0820 O.2    91  HIS91      -0.2867
     14  CB        -8.8470   -0.9890   10.1450 C.3    91  HIS91       0.0745
     15  CG        -8.2880   -0.6760   11.4930 C.ar   91  HIS91       0.0817
     16  ND1       -8.5060    0.5290   12.1270 N.ar   91  HIS91      -0.2268
     17  CD2       -7.5760   -1.4340   12.3590 C.ar   91  HIS91       0.1154
     18  CE1       -7.9530    0.4970   13.3260 C.ar   91  HIS91       0.1986
     19  NE2       -7.3830   -0.6850   13.4920 N.ar   91  HIS91      -0.2212
     20  N         -8.0240   -6.5520   12.2950 N.3    93  HIS93      -0.1241
     21  CA        -6.7630   -7.2390   12.5400 C.3    93  HIS93       0.1621
     22  C         -7.2120   -8.6890   12.4470 C.2    93  HIS93       0.2264
     23  O         -8.2640   -9.0430   12.9780 O.2    93  HIS93      -0.2867
     24  CB        -6.2330   -6.9410   13.9390 C.3    93  HIS93       0.0745
     25  CG        -5.8980   -5.5010   14.1560 C.ar   93  HIS93       0.0817
     26  ND1       -4.6470   -4.9800   13.9060 N.ar   93  HIS93      -0.2268
     27  CD2       -6.6660   -4.4630   14.5630 C.ar   93  HIS93       0.1154
     28  CE1       -4.6580   -3.6810   14.1540 C.ar   93  HIS93       0.1986
     29  NE2       -5.8700   -3.3430   14.5530 N.ar   93  HIS93      -0.2212
     30  N        -12.0020   -2.6340   14.6640 N.3   116  HIS116     -0.1241
     31  CA       -11.7280   -1.4250   15.4240 C.3   116  HIS116      0.1621
     32  C        -12.3830   -0.2150   14.7870 C.2   116  HIS116      0.2264
     33  O        -12.0340    0.1670   13.6710 O.2   116  HIS116     -0.2867
     34  CB       -10.2220   -1.1850   15.5090 C.3   116  HIS116      0.0745
     35  CG        -9.5210   -2.1230   16.4350 C.ar  116  HIS116      0.0817
     36  ND1       -8.1510   -2.2890   16.4380 N.ar  116  HIS116     -0.2268
     37  CD2       -9.9990   -2.9350   17.4060 C.ar  116  HIS116      0.1154
     38  CE1       -7.8190   -3.1610   17.3690 C.ar  116  HIS116      0.1986
     39  NE2       -8.9200   -3.5690   17.9720 N.ar  116  HIS116     -0.2212
     40  N        -12.5960    3.5180   15.0790 N.3   118  VAL118     -0.1245
     41  CA       -11.8200    4.6000   15.6780 C.3   118  VAL118      0.1561
     42  C        -12.5390    5.9420   15.7070 C.2   118  VAL118      0.2260
     43  O        -13.0370    6.4020   14.6810 O.2   118  VAL118     -0.2867
     44  CB       -10.4850    4.7570   14.9160 C.3   118  VAL118      0.0252
     45  CG1       -9.5730    5.7330   15.6410 C.3   118  VAL118      0.0019
     46  CG2       -9.8170    3.3990   14.7640 C.3   118  VAL118      0.0019
     47  N         -8.3030   14.9930   14.6900 N.3   127  PHE127     -0.1241
     48  CA        -7.6140   13.7780   15.1020 C.3   127  PHE127      0.1605
     49  C         -6.1690   14.0310   15.5290 C.2   127  PHE127      0.2264
     50  O         -5.6990   13.4530   16.5110 O.2   127  PHE127     -0.2867
     51  CB        -7.6610   12.7510   13.9640 C.3   127  PHE127      0.0534
     52  CG        -6.9990   11.4450   14.2910 C.ar  127  PHE127     -0.0203
     53  CD1       -5.6270   11.2830   14.1390 C.ar  127  PHE127     -0.0042
     54  CD2       -7.7500   10.3760   14.7610 C.ar  127  PHE127     -0.0042
     55  CE1       -5.0140   10.0730   14.4500 C.ar  127  PHE127     -0.0003
     56  CE2       -7.1480    9.1640   15.0750 C.ar  127  PHE127     -0.0003
     57  CZ        -5.7780    9.0120   14.9200 C.ar  127  PHE127     -0.0000
     58  N        -11.7740    3.8250   20.9250 N.3   139  VAL139     -0.1245
     59  CA       -11.8590    2.7890   19.9180 C.3   139  VAL139      0.1561
     60  C        -12.8190    1.7110   20.3980 C.2   139  VAL139      0.2260
     61  O        -12.6850    1.1820   21.5020 O.2   139  VAL139     -0.2867
     62  CB       -10.4890    2.1550   19.6150 C.3   139  VAL139      0.0252
     63  CG1      -10.6550    1.1070   18.5060 C.3   139  VAL139      0.0019
     64  CG2       -9.5040    3.2300   19.1580 C.3   139  VAL139      0.0019
     65  N         -2.8760    3.0610   21.0340 N.3   194  LEU194     -0.1231
     66  CA        -3.0350    2.6280   19.6590 C.3   194  LEU194      0.1693
     67  C         -2.2580    1.3140   19.6820 C.2   194  LEU194      0.2593
     68  O         -1.2470    1.2000   20.3930 O.2   194  LEU194     -0.2718
     69  CB        -2.3500    3.6040   18.7070 C.3   194  LEU194      0.0284
     70  CG        -2.8690    5.0390   18.6510 C.3   194  LEU194      0.0019
     71  CD1       -2.0310    5.8330   17.6540 C.3   194  LEU194      0.0001
     72  CD2       -4.3330    5.0480   18.2420 C.3   194  LEU194      0.0001
     73  N         -2.7160    0.3210   18.9310 N.am  195  THR195     -0.1939
     74  CA        -2.0290   -0.9690   18.9230 C.3   195  THR195      0.2028
     75  C         -0.9900   -1.0790   17.8130 C.2   195  THR195      0.2643
     76  O         -0.3860   -2.1320   17.6210 O.2   195  THR195     -0.2714
     77  CB        -3.0170   -2.1330   18.7840 C.3   195  THR195      0.1808
     78  OG1       -3.6590   -2.0640   17.5050 O.3   195  THR195     -0.2208
     79  CG2       -4.0600   -2.0780   19.8950 C.3   195  THR195      0.0379
     80  N         -0.8000    0.0130   17.0790 N.am  196  THR196     -0.1937
     81  CA         0.1900    0.0680   16.0100 C.3   196  THR196      0.2013
     82  C          1.0100    1.3310   16.2170 C.2   196  THR196      0.2484
     83  O          0.5420    2.2900   16.8300 O.2   196  THR196     -0.2729
     84  CB        -0.4500    0.1800   14.6080 C.3   196  THR196      0.1807
     85  OG1       -1.2550    1.3640   14.5440 O.3   196  THR196     -0.2208
     86  CG2       -1.2940   -1.0410   14.2930 C.3   196  THR196      0.0379
     87  N          2.2610    1.3380   15.7380 N.am  197  PRO197     -0.2715
     88  CA         3.0880    2.5350   15.8970 C.3   197  PRO197      0.1521
     89  C          2.2900    3.7190   15.3520 C.2   197  PRO197      0.2440
     90  O          1.6010    3.5940   14.3320 O.2   197  PRO197     -0.2731
     91  CB         4.3130    2.2080   15.0520 C.3   197  PRO197      0.0310
     92  CG         4.4700    0.7310   15.2770 C.3   197  PRO197      0.0237
     93  CD         3.0350    0.2260   15.1590 C.3   197  PRO197      0.0939
     94  N          2.4240    4.9030   15.9710 N.am  198  PRO198     -0.2727
     95  CA         3.2490    5.2630   17.1300 C.3   198  PRO198      0.1402
     96  C          2.8480    4.8080   18.5380 C.2   198  PRO198      0.2269
     97  O          3.4270    5.2790   19.5160 O.2   198  PRO198     -0.2865
     98  CB         3.3320    6.7800   17.0160 C.3   198  PRO198      0.0296
     99  CG         1.9830    7.1320   16.5080 C.3   198  PRO198      0.0237
    100  CD         1.7210    6.0880   15.4470 C.3   198  PRO198      0.0939
    101  N        -10.4410    2.3820   25.5520 N.3   205  TRP205     -0.1241
    102  CA       -10.8950    1.1910   24.8590 C.3   205  TRP205      0.1605
    103  C        -12.2400    0.7080   25.3650 C.2   205  TRP205      0.2264
    104  O        -12.4820    0.6540   26.5680 O.2   205  TRP205     -0.2867
    105  CB        -9.8680    0.0630   24.9990 C.3   205  TRP205      0.0550
    106  CG        -8.7570    0.1650   24.0140 C.ar  205  TRP205      0.0003
    107  CD1       -7.5410    0.7670   24.1930 C.ar  205  TRP205      0.0946
    108  CD2       -8.7940   -0.2670   22.6520 C.ar  205  TRP205      0.0152
    109  NE1       -6.8250    0.7430   23.0200 N.ar  205  TRP205     -0.2442
    110  CE2       -7.5710    0.1110   22.0580 C.ar  205  TRP205      0.0810
    111  CE3       -9.7480   -0.9370   21.8710 C.ar  205  TRP205      0.0012
    112  CZ2       -7.2750   -0.1590   20.7170 C.ar  205  TRP205      0.0191
    113  CZ3       -9.4520   -1.2060   20.5410 C.ar  205  TRP205      0.0001
    114  CH2       -8.2250   -0.8160   19.9790 C.ar  205  TRP205      0.0015
@<TRIPOS>BOND
     1     5     2    1
     2     5     6    1
     3    14    11    1
     4    14    15    1
     5    11    10    1
     6    11    12    1
     7     2     3    1
     8     2     1    1
     9     6     7    1
    10    12    13    2
    11     7     8    2
    12     7     9   am
    13     3     4    2
    14    15    16   ar
    15    15    17   ar
    16    16    18   ar
    17    20    21    1
    18    17    19   ar
    19    22    21    1
    20    22    23    2
    21    21    24    1
    22    18    19   ar
    23    33    32    2
    24    26    28   ar
    25    26    25   ar
    26    24    25    1
    27    51    52    1
    28    51    48    1
    29    53    52   ar
    30    53    55   ar
    31    28    29   ar
    32    25    27   ar
    33    52    54   ar
    34    86    84    1
    35    90    89    2
    36    55    57   ar
    37    85    84    1
    38    29    27   ar
    39    84    81    1
    40    30    31    1
    41    43    42    2
    42    47    48    1
    43    54    56   ar
    44    46    44    1
    45    32    31    1
    46    44    45    1
    47    44    41    1
    48    57    56   ar
    49    91    92    1
    50    91    88    1
    51    40    41    1
    52    48    49    1
    53    93    92    1
    54    93    87    1
    55    89    88    1
    56    89    94   am
    57    31    34    1
    58   100    94    1
    59   100    99    1
    60    34    35    1
    61    49    50    2
    62    41    42    1
    63    87    88    1
    64    87    82   am
    65    94    95    1
    66    81    82    1
    67    81    80    1
    68    82    83    2
    69    35    36   ar
    70    35    37   ar
    71    36    38   ar
    72    99    98    1
    73    98    95    1
    74    80    75   am
    75    95    96    1
    76    38    39   ar
    77    37    39   ar
    78    78    77    1
    79    76    75    2
    80    71    70    1
    81    75    74    1
    82    72    70    1
    83    63    62    1
    84    96    97    2
    85    70    69    1
    86    69    66    1
    87    77    74    1
    88    77    79    1
    89    74    73    1
    90    73    67   am
    91    64    62    1
    92    62    59    1
    93    66    67    1
    94    66    65    1
    95    67    68    2
    96    59    60    1
    97    59    58    1
    98   114   113   ar
    99   114   112   ar
   100    60    61    2
   101   113   111   ar
   102   112   110   ar
   103   111   108   ar
   104   110   108   ar
   105   110   109   ar
   106   108   106   ar
   107   109   107   ar
   108   106   107   ar
   109   106   105    1
   110   102   105    1
   111   102   103    1
   112   102   101    1
   113   103   104    2
