@<TRIPOS>MOLECULE
tmp/2hnkB00.pdb
 202 198 0 0 0
SMALL
GASTEIGER

@<TRIPOS>ATOM
      1  N         16.3010   16.8180   25.1680 N.3    40  MET40      -0.1230
      2  CA        15.8560   15.6230   24.4490 C.3    40  MET40       0.1702
      3  C         15.5680   14.4790   25.4100 C.2    40  MET40       0.2592
      4  O         14.8880   13.5100   25.0420 O.2    40  MET40      -0.2718
      5  CB        16.9050   15.1610   23.4390 C.3    40  MET40       0.0401
      6  CG        16.9560   15.9510   22.1550 C.3    40  MET40       0.0596
      7  SD        17.7230   14.9560   20.8660 S.3    40  MET40      -0.1393
      8  CE        16.2690   14.3000   20.0560 C.3    40  MET40       0.0692
      9  N         16.0880   14.5830   26.6340 N.am   41  GLN41      -0.1966
     10  CA        15.8940   13.5220   27.6180 C.3    41  GLN41       0.1733
     11  C         14.8390   13.8360   28.6830 C.2    41  GLN41       0.2616
     12  O         14.4960   15.0010   28.9300 O.2    41  GLN41      -0.2715
     13  CB        17.2220   13.0850   28.2560 C.3    41  GLN41       0.0408
     14  CG        17.7330   13.9750   29.3780 C.3    41  GLN41       0.0908
     15  CD        18.3500   13.1710   30.5080 C.2    41  GLN41       0.2608
     16  OE1       19.3080   12.4100   30.3100 O.2    41  GLN41      -0.2717
     17  NE2       17.7990   13.3340   31.7050 N.am   41  GLN41      -0.0878
     18  N         14.3570   12.7730   29.3160 N.am   42  ILE42      -0.1977
     19  CA        13.2420   12.8360   30.2470 C.3    42  ILE42       0.1596
     20  C         13.6760   13.2880   31.6480 C.2    42  ILE42       0.2287
     21  O         14.8680   13.2420   31.9890 O.2    42  ILE42      -0.2864
     22  CB        12.4980   11.4660   30.3030 C.3    42  ILE42       0.0276
     23  CG1       13.3500   10.4040   31.0030 C.3    42  ILE42       0.0022
     24  CG2       12.1070   10.9990   28.8860 C.3    42  ILE42       0.0022
     25  CD1       12.5980    9.1280   31.3410 C.3    42  ILE42       0.0001
     26  N         12.1800    0.0500   22.7150 N.3    64  GLU64      -0.1245
     27  CA        12.2740    1.4970   22.8060 C.3    64  GLU64       0.1567
     28  C         12.6800    2.0570   21.4440 C.2    64  GLU64       0.2260
     29  O         13.6650    1.6120   20.8470 O.2    64  GLU64      -0.2867
     30  CB        13.2770    1.8950   23.8920 C.3    64  GLU64       0.0388
     31  CG        13.6940    3.3520   23.8760 C.3    64  GLU64       0.1160
     32  CD        14.3870    3.7680   25.1450 C.2    64  GLU64       0.3649
     33  OE1       13.6930    4.0140   26.1470 O.co2  64  GLU64      -0.2457
     34  OE2       15.6300    3.8630   25.1520 O.co2  64  GLU64      -0.2457
     35  N         13.9920    5.2890   19.9770 N.3    66  GLY66      -0.1210
     36  CA        14.6150    6.5460   20.3490 C.3    66  GLY66       0.1956
     37  C         15.2100    6.3600   21.7230 C.2    66  GLY66       0.2613
     38  O         14.4810    6.3570   22.7250 O.2    66  GLY66      -0.2717
     39  N         16.5350    6.2030   21.7640 N.am   67  THR67      -0.1938
     40  CA        17.2620    5.8530   22.9820 C.3    67  THR67       0.2028
     41  C         18.1160    6.9950   23.5040 C.2    67  THR67       0.2642
     42  O         18.2120    7.1880   24.7230 O.2    67  THR67      -0.2714
     43  CB        18.1300    4.5860   22.7570 C.3    67  THR67       0.1808
     44  OG1       17.2610    3.4580   22.6170 O.3    67  THR67      -0.2208
     45  CG2       19.1130    4.3410   23.9200 C.3    67  THR67       0.0379
     46  N         18.7340    7.7420   22.5860 N.am   68  PHE68      -0.1959
     47  CA        19.5780    8.8910   22.9260 C.3    68  PHE68       0.1771
     48  C         20.6910    8.4190   23.8710 C.2    68  PHE68       0.2620
     49  O         21.3100    7.3810   23.6050 O.2    68  PHE68      -0.2715
     50  CB        18.7180   10.0500   23.4860 C.3    68  PHE68       0.0574
     51  CG        19.4680   11.3560   23.7020 C.ar   68  PHE68      -0.0200
     52  CD1       20.4270   11.8040   22.7910 C.ar   68  PHE68      -0.0042
     53  CD2       19.1800   12.1520   24.8130 C.ar   68  PHE68      -0.0042
     54  CE1       21.1160   13.0200   22.9950 C.ar   68  PHE68      -0.0003
     55  CE2       19.8570   13.3670   25.0290 C.ar   68  PHE68      -0.0003
     56  CZ        20.8300   13.8000   24.1140 C.ar   68  PHE68      -0.0000
     57  N         20.9490    9.1450   24.9630 N.am   69  THR69      -0.1937
     58  CA        22.0130    8.7510   25.8910 C.3    69  THR69       0.2028
     59  C         21.5700    7.7280   26.9370 C.2    69  THR69       0.2643
     60  O         22.3310    7.4120   27.8460 O.2    69  THR69      -0.2714
     61  CB        22.6850    9.9620   26.5800 C.3    69  THR69       0.1808
     62  OG1       21.7170   10.6780   27.3640 O.3    69  THR69      -0.2208
     63  CG2       23.3270   10.8830   25.5440 C.3    69  THR69       0.0379
     64  N         20.3390    7.2360   26.8120 N.am   70  GLY70      -0.1939
     65  CA        19.8930    6.0320   27.5100 C.3    70  GLY70       0.2014
     66  C         19.1220    6.1210   28.8190 C.2    70  GLY70       0.2639
     67  O         18.8980    5.0950   29.4580 O.2    70  GLY70      -0.2714
     68  N         18.6970    7.3160   29.2300 N.am   71  TYR71      -0.1959
     69  CA        18.0230    7.4550   30.5320 C.3    71  TYR71       0.1771
     70  C         16.7650    6.5970   30.6890 C.2    71  TYR71       0.2620
     71  O         16.6490    5.8640   31.6650 O.2    71  TYR71      -0.2715
     72  CB        17.7200    8.9190   30.8860 C.3    71  TYR71       0.0574
     73  CG        17.3310    9.0800   32.3440 C.ar   71  TYR71      -0.0198
     74  CD1       16.0030    8.9210   32.7560 C.ar   71  TYR71      -0.0009
     75  CD2       18.2890    9.3590   33.3120 C.ar   71  TYR71      -0.0009
     76  CE1       15.6380    9.0490   34.0970 C.ar   71  TYR71       0.0417
     77  CE2       17.9330    9.4840   34.6590 C.ar   71  TYR71       0.0417
     78  CZ        16.6040    9.3300   35.0390 C.ar   71  TYR71       0.1957
     79  OH        16.2460    9.4510   36.3610 O.3    71  TYR71      -0.2866
     80  N         15.8330    6.6800   29.7400 N.am   72  SER72      -0.1950
     81  CA        14.6320    5.8480   29.7740 C.3    72  SER72       0.1924
     82  C         14.9460    4.3670   29.6340 C.2    72  SER72       0.2314
     83  O         14.3190    3.5380   30.3020 O.2    72  SER72      -0.2863
     84  CB        13.6380    6.2660   28.6990 C.3    72  SER72       0.2116
     85  OG        14.2050    6.1180   27.4060 O.3    72  SER72      -0.2180
     86  N         16.2700    1.1180   19.8350 N.3    89  CYS89      -0.1221
     87  CA        16.3580    1.4750   18.4210 C.3    89  CYS89       0.1808
     88  C         16.7960    2.9260   18.2850 C.2    89  CYS89       0.2601
     89  O         16.0470    3.8330   18.6430 O.2    89  CYS89      -0.2717
     90  CB        15.0010    1.3170   17.7390 C.3    89  CYS89       0.0970
     91  SG        14.3350   -0.3450   17.6820 S.3    89  CYS89      -0.0800
     92  N         17.9950    3.1510   17.7580 N.am   90  ASP90      -0.1959
     93  CA        18.4960    4.5100   17.6170 C.3    90  ASP90       0.1840
     94  C         19.3250    4.6810   16.3460 C.2    90  ASP90       0.2622
     95  O         19.8450    3.7040   15.7920 O.2    90  ASP90      -0.2715
     96  CB        19.2970    4.9110   18.8580 C.3    90  ASP90       0.1450
     97  CG        19.3490    6.4150   19.0600 C.2    90  ASP90       0.3671
     98  OD1       20.1380    7.0860   18.3660 O.co2  90  ASP90      -0.2456
     99  OD2       18.6210    6.9300   19.9340 O.co2  90  ASP90      -0.2456
    100  N         19.4250    5.9240   15.8800 N.am   91  VAL91      -0.1963
    101  CA        20.1930    6.2460   14.6810 C.3    91  VAL91       0.1727
    102  C         21.6580    6.5380   14.9910 C.2    91  VAL91       0.2616
    103  O         22.5010    6.4770   14.1040 O.2    91  VAL91      -0.2715
    104  CB        19.6060    7.4600   13.9240 C.3    91  VAL91       0.0290
    105  CG1       18.3020    7.0850   13.2470 C.3    91  VAL91       0.0023
    106  CG2       19.4340    8.6540   14.8570 C.3    91  VAL91       0.0023
    107  N         21.9420    6.8410   16.2550 N.am   92  SER92      -0.1950
    108  CA        23.2110    7.4240   16.6540 C.3    92  SER92       0.1924
    109  C         24.0810    6.4790   17.4740 C.2    92  SER92       0.2314
    110  O         23.7020    6.0580   18.5680 O.2    92  SER92      -0.2863
    111  CB        22.9620    8.7220   17.4250 C.3    92  SER92       0.2116
    112  OG        24.1480    9.1590   18.0650 O.3    92  SER92      -0.2180
    113  N         25.5470    8.6330   20.6430 N.3    95  TRP95      -0.1241
    114  CA        24.6640    8.7650   21.7950 C.3    95  TRP95       0.1605
    115  C         24.4550    7.4560   22.5330 C.2    95  TRP95       0.2264
    116  O         24.4840    7.4290   23.7560 O.2    95  TRP95      -0.2867
    117  CB        23.3100    9.3590   21.3900 C.3    95  TRP95       0.0550
    118  CG        23.3670   10.7630   20.8570 C.ar   95  TRP95       0.0003
    119  CD1       22.6370   11.2660   19.8200 C.ar   95  TRP95       0.0946
    120  CD2       24.1820   11.8430   21.3330 C.ar   95  TRP95       0.0152
    121  NE1       22.9460   12.5920   19.6160 N.ar   95  TRP95      -0.2442
    122  CE2       23.8950   12.9700   20.5280 C.ar   95  TRP95       0.0810
    123  CE3       25.1310   11.9670   22.3540 C.ar   95  TRP95       0.0012
    124  CZ2       24.5220   14.2090   20.7130 C.ar   95  TRP95       0.0191
    125  CZ3       25.7600   13.1930   22.5360 C.ar   95  TRP95       0.0001
    126  CH2       25.4460   14.3050   21.7180 C.ar   95  TRP95       0.0015
    127  N         20.2550    2.4970   13.3250 N.3   117  GLY117     -0.1210
    128  CA        19.7410    2.8390   12.0020 C.3   117  GLY117      0.1956
    129  C         18.3220    3.3610   12.0550 C.2   117  GLY117      0.2613
    130  O         17.7970    3.6680   13.1350 O.2   117  GLY117     -0.2717
    131  N         17.6980    3.4540   10.8850 N.am  118  SER118     -0.1938
    132  CA        16.3060    3.8830   10.7850 C.3   118  SER118      0.2055
    133  C         15.3830    2.8920   11.4960 C.2   118  SER118      0.2642
    134  O         15.3310    1.7090   11.1370 O.2   118  SER118     -0.2714
    135  CB        15.8960    4.0440    9.3250 C.3   118  SER118      0.2130
    136  OG        14.5130    4.3480    9.2490 O.3   118  SER118     -0.2179
    137  N         14.6720    3.3810   12.5120 N.am  119  ALA119     -0.1977
    138  CA        13.7850    2.5360   13.3130 C.3   119  ALA119      0.1597
    139  C         12.6070    1.9880   12.5080 C.2   119  ALA119      0.2287
    140  O         12.0700    0.9310   12.8470 O.2   119  ALA119     -0.2864
    141  CB        13.2990    3.2760   14.5400 C.3   119  ALA119      0.0319
    142  N          8.1410    2.0570   23.9580 N.3   150  PHE150     -0.1241
    143  CA         8.3140    3.4540   24.2770 C.3   150  PHE150      0.1605
    144  C          8.6710    4.1980   22.9900 C.2   150  PHE150      0.2264
    145  O          9.7360    3.9750   22.4230 O.2   150  PHE150     -0.2867
    146  CB         9.3870    3.6440   25.3430 C.3   150  PHE150      0.0534
    147  CG         9.5230    5.0660   25.8120 C.ar  150  PHE150     -0.0203
    148  CD1        8.4170    5.7690   26.2840 C.ar  150  PHE150     -0.0042
    149  CD2       10.7590    5.7110   25.7720 C.ar  150  PHE150     -0.0042
    150  CE1        8.5390    7.0940   26.7160 C.ar  150  PHE150     -0.0003
    151  CE2       10.8890    7.0260   26.2020 C.ar  150  PHE150     -0.0003
    152  CZ         9.7770    7.7170   26.6770 C.ar  150  PHE150     -0.0000
    153  N          9.7320    7.5900   21.3260 N.3   152  ASP152     -0.1225
    154  CA        10.3930    8.8560   21.6630 C.3   152  ASP152      0.1805
    155  C         11.4480    9.2090   20.6060 C.2   152  ASP152      0.2598
    156  O         12.5400    9.6740   20.9420 O.2   152  ASP152     -0.2718
    157  CB        11.0500    8.7410   23.0400 C.3   152  ASP152      0.1424
    158  CG        11.4390   10.0860   23.6270 C.2   152  ASP152      0.3668
    159  OD1       10.8960   11.1300   23.2040 O.co2 152  ASP152     -0.2456
    160  OD2       12.2860   10.1000   24.5390 O.co2 152  ASP152     -0.2456
    161  N         11.1180    8.9720   19.3360 N.am  153  ALA153     -0.1966
    162  CA        12.0540    9.1550   18.2270 C.3   153  ALA153      0.1728
    163  C         11.7570   10.4360   17.4680 C.2   153  ALA153      0.2616
    164  O         11.4040   11.4490   18.0730 O.2   153  ALA153     -0.2715
    165  CB        12.0010    7.9640   17.2790 C.3   153  ALA153      0.0334
    166  N         11.9060   10.3800   16.1460 N.am  154  ASP154     -0.1957
    167  CA        11.6620   11.5230   15.2790 C.3   154  ASP154      0.1840
    168  C         10.1670   11.7430   15.0900 C.2   154  ASP154      0.2621
    169  O          9.4550   10.8900   14.5470 O.2   154  ASP154     -0.2715
    170  CB        12.3850   11.3520   13.9310 C.3   154  ASP154      0.1450
    171  CG        12.0350   10.0580   13.2400 C.2   154  ASP154      0.3671
    172  OD1       12.1400    8.9910   13.8820 O.co2 154  ASP154     -0.2456
    173  OD2       11.6490   10.1060   12.0490 O.co2 154  ASP154     -0.2456
    174  N          9.7120   12.9090   15.5330 N.am  155  LYS155     -0.1977
    175  CA         8.2880   13.1950   15.7060 C.3   155  LYS155      0.1596
    176  C          7.4620   13.0740   14.4390 C.2   155  LYS155      0.2287
    177  O          6.3180   12.6180   14.4900 O.2   155  LYS155     -0.2864
    178  CB         8.0870   14.5810   16.3250 C.3   155  LYS155      0.0298
    179  CG         8.9330   14.8610   17.5690 C.3   155  LYS155      0.0038
    180  CD         8.8890   13.7250   18.5860 C.3   155  LYS155      0.0206
    181  CE         9.9420   13.9300   19.6670 C.3   155  LYS155      0.1093
    182  NZ        10.0560   12.7440   20.5700 N.3   155  LYS155     -0.1314
    183  N          7.5320   11.1100   12.0730 N.3   157  ASN157     -0.1240
    184  CA         7.2170    9.7440   11.6650 C.3   157  ASN157      0.1653
    185  C          6.3440    8.9970   12.6560 C.2   157  ASN157      0.2266
    186  O          5.9940    7.8370   12.4190 O.2   157  ASN157     -0.2867
    187  CB         8.4850    8.9470   11.3760 C.3   157  ASN157      0.1155
    188  CG         9.0270    9.2050    9.9910 C.2   157  ASN157      0.2627
    189  OD1        8.3840    8.8920    8.9800 O.2   157  ASN157     -0.2716
    190  ND2       10.2200    9.7780    9.9300 N.am  157  ASN157     -0.0877
    191  N          5.2370    5.0370   12.5500 N.3   161  TYR161     -0.1241
    192  CA         5.5350    4.0330   13.5770 C.3   161  TYR161      0.1605
    193  C          4.2800    3.3200   14.0670 C.2   161  TYR161      0.2264
    194  O          4.2940    2.0930   14.2550 O.2   161  TYR161     -0.2867
    195  CB         6.2670    4.6520   14.7690 C.3   161  TYR161      0.0534
    196  CG         7.6570    5.1270   14.4350 C.ar  161  TYR161     -0.0201
    197  CD1        8.6390    4.2330   13.9940 C.ar  161  TYR161     -0.0009
    198  CD2        7.9970    6.4720   14.5590 C.ar  161  TYR161     -0.0009
    199  CE1        9.9270    4.6790   13.6740 C.ar  161  TYR161      0.0417
    200  CE2        9.2740    6.9260   14.2470 C.ar  161  TYR161      0.0417
    201  CZ        10.2330    6.0270   13.8040 C.ar  161  TYR161      0.1957
    202  OH        11.5040    6.4870   13.4940 O.3   161  TYR161     -0.2866
@<TRIPOS>BOND
     1   189   188    2
     2   136   135    1
     3   135   132    1
     4   190   188   am
     5   188   187    1
     6   132   131    1
     7   132   133    1
     8   131   129   am
     9   134   133    2
    10   187   184    1
    11   133   137   am
    12   184   183    1
    13   184   185    1
    14   128   129    1
    15   128   127    1
    16   173   171   ar
    17   129   130    2
    18   186   185    2
    19   139   140    2
    20   139   138    1
    21   137   138    1
    22   191   192    1
    23   171   172   ar
    24   171   170    1
    25   105   104    1
    26   138   141    1
    27   202   201    1
    28   192   193    1
    29   192   195    1
    30   199   201   ar
    31   199   197   ar
    32   201   200   ar
    33   104   101    1
    34   104   106    1
    35   170   167    1
    36   197   196   ar
    37   193   194    2
    38   103   102    2
    39   200   198   ar
    40   196   198   ar
    41   196   195    1
    42   176   177    2
    43   176   175    1
    44   169   168    2
    45   101   102    1
    46   101   100    1
    47   102   107   am
    48   168   167    1
    49   168   174   am
    50   167   166    1
    51   174   175    1
    52   175   178    1
    53    95    94    2
    54   100    94   am
    55   166   163   am
    56   107   108    1
    57   178   179    1
    58    94    93    1
    59   108   111    1
    60   108   109    1
    61   165   162    1
    62   111   112    1
    63   163   164    2
    64   163   162    1
    65   109   110    2
    66   179   180    1
    67    93    92    1
    68    93    96    1
    69    91    90    1
    70    90    87    1
    71    92    88   am
    72   162   161    1
    73    88    87    1
    74    88    89    2
    75    98    97   ar
    76    87    86    1
    77   180   181    1
    78    96    97    1
    79    97    99   ar
    80   161   155   am
    81   121   119   ar
    82   121   122   ar
    83   181   182    1
    84   119   118   ar
    85    35    36    1
    86     8     7    1
    87    36    37    1
    88   122   124   ar
    89   122   120   ar
    90   155   156    2
    91   155   154    1
    92   113   114    1
    93   124   126   ar
    94    29    28    2
    95   118   120   ar
    96   118   117    1
    97     7     6    1
    98   153   154    1
    99   120   123   ar
   100   117   114    1
   101    28    27    1
   102   154   157    1
   103   126   125   ar
   104    37    39   am
   105    37    38    2
   106    39    40    1
   107   114   115    1
   108     6     5    1
   109   123   125   ar
   110   145   144    2
   111   115   116    2
   112    46    47    1
   113    46    41   am
   114    44    43    1
   115    26    27    1
   116    43    40    1
   117    43    45    1
   118    52    54   ar
   119    52    51   ar
   120    27    30    1
   121    47    50    1
   122    47    48    1
   123    40    41    1
   124   144   143    1
   125    54    56   ar
   126   157   158    1
   127   159   158   ar
   128     5     2    1
   129    50    51    1
   130    41    42    2
   131    49    48    2
   132   158   160   ar
   133    51    53   ar
   134    48    57   am
   135    31    30    1
   136    31    32    1
   137   142   143    1
   138    56    55   ar
   139   143   146    1
   140     2     1    1
   141     2     3    1
   142    53    55   ar
   143    57    58    1
   144     4     3    2
   145    32    34   ar
   146    32    33   ar
   147   146   147    1
   148     3     9   am
   149    63    61    1
   150   149   147   ar
   151   149   151   ar
   152   147   148   ar
   153    58    61    1
   154    58    59    1
   155   151   152   ar
   156   148   150   ar
   157    61    62    1
   158     9    10    1
   159   152   150   ar
   160    64    59   am
   161    64    65    1
   162    59    60    2
   163    85    84    1
   164    65    66    1
   165    10    13    1
   166    10    11    1
   167    13    14    1
   168    11    12    2
   169    11    18   am
   170    84    81    1
   171    66    68   am
   172    66    67    2
   173    24    22    1
   174    68    69    1
   175    18    19    1
   176    14    15    1
   177    82    81    1
   178    82    83    2
   179    80    81    1
   180    80    70   am
   181    19    22    1
   182    19    20    1
   183    22    23    1
   184    16    15    2
   185    15    17   am
   186    69    70    1
   187    69    72    1
   188    70    71    2
   189    72    73    1
   190    23    25    1
   191    20    21    2
   192    73    74   ar
   193    73    75   ar
   194    74    76   ar
   195    75    77   ar
   196    76    78   ar
   197    77    78   ar
   198    78    79    1
