@<TRIPOS>MOLECULE
tmp/2hnlA00.pdb
 158 156 0 0 0
SMALL
GASTEIGER

@<TRIPOS>ATOM
      1  N         13.2390   50.9040   18.4540 N.3     9  TYR9       -0.1227
      2  CA        14.2900   51.7280   19.0460 C.3     9  TYR9        0.1736
      3  C         14.2720   53.0850   18.3590 C.2     9  TYR9        0.2595
      4  O         13.5250   53.2750   17.4200 O.2     9  TYR9       -0.2718
      5  CB        15.6480   51.0570   18.8890 C.3     9  TYR9        0.0548
      6  CG        16.7340   51.6570   19.7500 C.ar    9  TYR9       -0.0200
      7  CD1       16.7290   51.4800   21.1030 C.ar    9  TYR9       -0.0009
      8  CD2       17.7690   52.4010   19.2020 C.ar    9  TYR9       -0.0009
      9  CE1       17.6810   52.0400   21.9210 C.ar    9  TYR9        0.0417
     10  CE2       18.7960   52.9410   20.0320 C.ar    9  TYR9        0.0417
     11  CZ        18.7050   52.7690   21.3940 C.ar    9  TYR9        0.1957
     12  OH        19.6670   53.2140   22.2760 O.3     9  TYR9       -0.2866
     13  N         15.0290   54.0410   18.8700 N.am   10  PHE10      -0.1976
     14  CA        15.3070   55.2600   18.1060 C.3    10  PHE10       0.1639
     15  C         16.1070   54.9540   16.8390 C.2    10  PHE10       0.2290
     16  O         16.5690   53.8330   16.6010 O.2    10  PHE10      -0.2864
     17  CB        16.0230   56.2990   18.9610 C.3    10  PHE10       0.0560
     18  CG        15.3140   56.5980   20.2440 C.ar   10  PHE10      -0.0200
     19  CD1       15.8990   56.3270   21.4530 C.ar   10  PHE10      -0.0042
     20  CD2       14.0290   57.1580   20.2280 C.ar   10  PHE10      -0.0042
     21  CE1       15.2320   56.5950   22.6370 C.ar   10  PHE10      -0.0003
     22  CE2       13.3700   57.4230   21.3910 C.ar   10  PHE10      -0.0003
     23  CZ        13.9780   57.1340   22.6030 C.ar   10  PHE10      -0.0000
     24  N         21.6890   51.0020   22.1080 N.3    15  ARG15      -0.1245
     25  CA        21.4490   49.7650   22.8210 C.3    15  ARG15       0.1563
     26  C         20.7250   48.7050   21.9990 C.2    15  ARG15       0.2260
     27  O         20.4330   47.6240   22.5100 O.2    15  ARG15      -0.2867
     28  CB        20.6100   50.0920   24.0510 C.3    15  ARG15       0.0307
     29  CG        21.3350   50.8640   25.1190 C.3    15  ARG15       0.0489
     30  CD        20.4800   50.9690   26.4150 C.3    15  ARG15       0.2205
     31  NE        21.1050   51.6920   27.5250 N.pl3  15  ARG15      -0.0865
     32  CZ        21.9750   51.1580   28.3590 C.cat  15  ARG15       0.5346
     33  NH1       22.4630   51.8650   29.3560 N.pl3  15  ARG15       0.1354
     34  NH2       22.3950   49.9120   28.1940 N.pl3  15  ARG15       0.1354
     35  N         11.6520   60.8610   18.8160 N.3    37  ARG37      -0.1245
     36  CA        11.2850   61.2770   20.1580 C.3    37  ARG37       0.1563
     37  C          9.8040   61.6010   20.3590 C.2    37  ARG37       0.2260
     38  O          9.2000   61.3190   21.4190 O.2    37  ARG37      -0.2867
     39  CB        12.0980   62.4830   20.5700 C.3    37  ARG37       0.0307
     40  CG        12.9580   62.1780   21.7430 C.3    37  ARG37       0.0489
     41  CD        14.1490   61.3160   21.4520 C.3    37  ARG37       0.2205
     42  NE        14.6210   60.7200   22.7140 N.pl3  37  ARG37      -0.0865
     43  CZ        15.8740   60.3720   22.9840 C.cat  37  ARG37       0.5346
     44  NH1       16.8380   60.5470   22.0720 N.pl3  37  ARG37       0.1354
     45  NH2       16.1620   59.8400   24.1730 N.pl3  37  ARG37       0.1354
     46  N          7.8480   58.5650   20.5200 N.3    40  TRP40      -0.1241
     47  CA         8.2410   57.9370   21.7790 C.3    40  TRP40       0.1605
     48  C          7.4280   58.4780   22.9540 C.2    40  TRP40       0.2264
     49  O          7.1260   57.7510   23.8680 O.2    40  TRP40      -0.2867
     50  CB         9.7560   58.1010   21.9970 C.3    40  TRP40       0.0550
     51  CG        10.2340   57.6180   23.3420 C.ar   40  TRP40       0.0003
     52  CD1       10.8950   58.3520   24.3090 C.ar   40  TRP40       0.0946
     53  CD2       10.0830   56.2910   23.8830 C.ar   40  TRP40       0.0152
     54  NE1       11.1390   57.5570   25.4070 N.ar   40  TRP40      -0.2442
     55  CE2       10.6580   56.2910   25.1700 C.ar   40  TRP40       0.0810
     56  CE3        9.5190   55.1150   23.4070 C.ar   40  TRP40       0.0012
     57  CZ2       10.6880   55.1520   25.9830 C.ar   40  TRP40       0.0191
     58  CZ3        9.5380   53.9940   24.2130 C.ar   40  TRP40       0.0001
     59  CH2       10.1260   54.0230   25.4900 C.ar   40  TRP40       0.0015
     60  N          6.0700   55.4210   25.2700 N.3    44  LYS44      -0.1245
     61  CA         6.8190   55.1670   26.5040 C.3    44  LYS44       0.1561
     62  C          6.0030   54.5670   27.6530 C.2    44  LYS44       0.2260
     63  O          6.4350   53.5850   28.2300 O.2    44  LYS44      -0.2867
     64  CB         7.5310   56.4480   26.9710 C.3    44  LYS44       0.0271
     65  CG         8.3140   56.3450   28.2900 C.3    44  LYS44       0.0035
     66  CD         9.0990   57.6180   28.5680 C.3    44  LYS44       0.0206
     67  CE         9.6940   57.6860   29.9740 C.3    44  LYS44       0.1093
     68  NZ        10.6760   56.6380   30.2060 N.3    44  LYS44      -0.1314
     69  N          9.4320   51.4950   30.4840 N.3    50  GLY50      -0.1210
     70  CA         9.6280   52.8770   30.0530 C.3    50  GLY50       0.1956
     71  C         10.8570   53.0930   29.1660 C.2    50  GLY50       0.2612
     72  O         11.3610   54.2180   29.1030 O.2    50  GLY50      -0.2717
     73  N         11.3330   52.0470   28.4810 N.am   51  HIS51      -0.1961
     74  CA        12.5080   52.1680   27.6410 C.3    51  HIS51       0.1787
     75  C         12.3890   51.3990   26.3240 C.2    51  HIS51       0.2620
     76  O         11.5330   50.5400   26.1620 O.2    51  HIS51      -0.2715
     77  CB        13.7730   51.6460   28.3420 C.3    51  HIS51       0.0785
     78  CG        14.1730   52.4100   29.5690 C.ar   51  HIS51       0.0821
     79  ND1       14.4380   51.7900   30.7750 N.ar   51  HIS51      -0.2267
     80  CD2       14.4550   53.7280   29.7510 C.ar   51  HIS51       0.1154
     81  CE1       14.8390   52.6990   31.6520 C.ar   51  HIS51       0.1986
     82  NE2       14.8360   53.8850   31.0640 N.ar   51  HIS51      -0.2212
     83  N         13.2950   51.7530   25.4170 N.am   52  VAL52      -0.1964
     84  CA        13.6500   50.9840   24.2240 C.3    52  VAL52       0.1712
     85  C         15.1010   50.5540   24.3760 C.2    52  VAL52       0.2458
     86  O         15.8620   51.2110   25.1040 O.2    52  VAL52      -0.2730
     87  CB        13.3820   51.7900   22.9580 C.3    52  VAL52       0.0289
     88  CG1       11.8780   51.8780   22.6850 C.3    52  VAL52       0.0023
     89  CG2       13.9410   53.2020   23.0580 C.3    52  VAL52       0.0023
     90  N         15.5140   49.4630   23.7490 N.am   53  PRO53      -0.2727
     91  CA        14.7350   48.7110   22.7570 C.3    53  PRO53       0.1402
     92  C         13.6500   47.8550   23.3360 C.2    53  PRO53       0.2269
     93  O         13.6470   47.5320   24.5280 O.2    53  PRO53      -0.2865
     94  CB        15.7940   47.8660   22.0820 C.3    53  PRO53       0.0296
     95  CG        16.7550   47.6120   23.2260 C.3    53  PRO53       0.0237
     96  CD        16.8660   48.9140   23.9350 C.3    53  PRO53       0.0939
     97  N         13.9880   45.2420   27.5430 N.3    64  GLU64      -0.1231
     98  CA        15.3840   45.1080   27.9920 C.3    64  GLU64       0.1699
     99  C         16.3780   44.5140   26.9620 C.2    64  GLU64       0.2593
    100  O         16.3170   43.3230   26.6600 O.2    64  GLU64      -0.2718
    101  CB        15.4770   44.3350   29.3080 C.3    64  GLU64       0.0402
    102  CG        14.9450   45.1040   30.5090 C.3    64  GLU64       0.1161
    103  CD        15.7070   46.4190   30.7680 C.2    64  GLU64       0.3649
    104  OE1       16.9540   46.3740   30.9340 O.co2  64  GLU64      -0.2457
    105  OE2       15.0600   47.4620   30.7940 O.co2  64  GLU64      -0.2457
    106  N         17.3250   45.3340   26.5210 N.am   65  SER65      -0.1938
    107  CA        18.2910   44.9510   25.5220 C.3    65  SER65       0.2055
    108  C         18.9320   43.6070   25.8110 C.2    65  SER65       0.2643
    109  O         19.0560   42.7840   24.9150 O.2    65  SER65      -0.2714
    110  CB        19.3570   46.0160   25.3240 C.3    65  SER65       0.2130
    111  OG        20.1530   46.2180   26.4750 O.3    65  SER65      -0.2179
    112  N         19.3410   43.3740   27.0570 N.am   66  HIS66      -0.1973
    113  CA        20.0980   42.1480   27.3100 C.3    66  HIS66       0.1656
    114  C         19.1900   40.9590   27.5000 C.2    66  HIS66       0.2291
    115  O         19.6250   39.8340   27.2950 O.2    66  HIS66      -0.2864
    116  CB        21.0740   42.3530   28.4400 C.3    66  HIS66       0.0771
    117  CG        21.8850   43.5860   28.2520 C.ar   66  HIS66       0.0820
    118  ND1       22.5440   43.8560   27.0730 N.ar   66  HIS66      -0.2267
    119  CD2       22.0480   44.6790   29.0360 C.ar   66  HIS66       0.1154
    120  CE1       23.1510   45.0270   27.1700 C.ar   66  HIS66       0.1986
    121  NE2       22.8240   45.5670   28.3350 N.ar   66  HIS66      -0.2212
    122  N         27.9910   46.4140   29.0420 N.3    97  ASP97      -0.1239
    123  CA        26.9440   47.3550   29.3910 C.3    97  ASP97       0.1674
    124  C         27.4190   48.4580   30.3310 C.2    97  ASP97       0.2266
    125  O         27.0260   49.6170   30.1800 O.2    97  ASP97      -0.2867
    126  CB        25.7880   46.6090   30.0670 C.3    97  ASP97       0.1410
    127  CG        24.6120   47.4920   30.3430 C.2    97  ASP97       0.3668
    128  OD1       23.8020   47.7920   29.4380 O.co2  97  ASP97      -0.2456
    129  OD2       24.4230   47.9180   31.4820 O.co2  97  ASP97      -0.2456
    130  N         29.3540   50.7990   28.0960 N.3   100  PHE100     -0.1241
    131  CA        28.3780   51.5010   27.3080 C.3   100  PHE100      0.1605
    132  C         27.7710   52.6290   28.1130 C.2   100  PHE100      0.2264
    133  O         27.7370   53.7430   27.6200 O.2   100  PHE100     -0.2867
    134  CB        27.2930   50.5670   26.7440 C.3   100  PHE100      0.0534
    135  CG        26.2500   51.2780   25.9470 C.ar  100  PHE100     -0.0203
    136  CD1       25.2330   51.9550   26.5780 C.ar  100  PHE100     -0.0042
    137  CD2       26.3260   51.3390   24.5620 C.ar  100  PHE100     -0.0042
    138  CE1       24.2770   52.6990   25.8020 C.ar  100  PHE100     -0.0003
    139  CE2       25.3670   52.0120   23.8170 C.ar  100  PHE100     -0.0003
    140  CZ        24.3360   52.6930   24.4640 C.ar  100  PHE100     -0.0000
    141  N         27.9160   56.9780   27.4420 N.3   104  ILE104     -0.1245
    142  CA        26.7530   57.7070   26.9340 C.3   104  ILE104      0.1561
    143  C         27.0530   59.2300   26.7120 C.2   104  ILE104      0.2260
    144  O         26.8180   59.7230   25.5900 O.2   104  ILE104     -0.2867
    145  CB        25.5000   57.4360   27.8130 C.3   104  ILE104      0.0252
    146  CG1       25.0450   55.9640   27.6530 C.3   104  ILE104      0.0019
    147  CG2       24.3350   58.3240   27.4280 C.3   104  ILE104      0.0019
    148  CD1       23.8160   55.6470   28.5430 C.3   104  ILE104      0.0001
    149  N         27.0550   61.2420   22.8650 N.3   108  HIS108     -0.1241
    150  CA        26.0720   62.2940   22.5640 C.3   108  HIS108      0.1621
    151  C         26.6750   63.6920   22.4890 C.2   108  HIS108      0.2264
    152  O         25.9500   64.6290   22.1820 O.2   108  HIS108     -0.2867
    153  CB        24.8690   62.2420   23.5330 C.3   108  HIS108      0.0745
    154  CG        24.0000   61.0350   23.2980 C.ar  108  HIS108      0.0817
    155  ND1       23.2020   60.8990   22.1780 N.ar  108  HIS108     -0.2268
    156  CD2       23.8950   59.8690   23.9690 C.ar  108  HIS108      0.1154
    157  CE1       22.6010   59.7210   22.2070 C.ar  108  HIS108      0.1986
    158  NE2       22.9970   59.0830   23.2900 N.ar  108  HIS108     -0.2212
@<TRIPOS>BOND
     1    16    15    2
     2    15    14    1
     3     4     3    2
     4    14    13    1
     5    14    17    1
     6     3    13   am
     7     3     2    1
     8     1     2    1
     9    35    36    1
    10     5     2    1
    11     5     6    1
    12    17    18    1
    13     8     6   ar
    14     8    10   ar
    15     6     7   ar
    16    10    11   ar
    17    36    37    1
    18    36    39    1
    19    20    18   ar
    20    20    22   ar
    21    18    19   ar
    22    37    38    2
    23    46    47    1
    24    39    40    1
    25     7     9   ar
    26    22    23   ar
    27    11     9   ar
    28    11    12    1
    29    41    40    1
    30    41    42    1
    31    19    21   ar
    32    47    50    1
    33    47    48    1
    34    50    51    1
    35    26    27    2
    36    26    25    1
    37    44    43    1
    38    94    91    1
    39    94    95    1
    40    24    25    1
    41   155   157   ar
    42   155   154   ar
    43   152   151    2
    44   157   158   ar
    45   151   150    1
    46   150   149    1
    47   150   153    1
    48    23    21   ar
    49    88    87    1
    50    42    43    2
    51    91    92    1
    52    91    90    1
    53    25    28    1
    54    48    49    2
    55    87    89    1
    56    87    84    1
    57    43    45    1
    58    95    96    1
    59   158   156   ar
    60   154   153    1
    61   154   156   ar
    62    92    93    2
    63    51    53   ar
    64    51    52   ar
    65    56    53   ar
    66    56    58   ar
    67    90    96    1
    68    90    85   am
    69   139   140   ar
    70   139   137   ar
    71    53    55   ar
    72    28    29    1
    73    58    59   ar
    74    84    85    1
    75    84    83    1
    76    52    54   ar
    77    85    86    2
    78   140   138   ar
    79   137   135   ar
    80   109   108    2
    81    29    30    1
    82    55    54   ar
    83    55    57   ar
    84    60    61    1
    85   110   107    1
    86   110   111    1
    87    83    75   am
    88    59    57   ar
    89   107   108    1
    90   107   106    1
    91   144   143    2
    92   138   136   ar
    93   108   112   am
    94   135   136   ar
    95   135   134    1
    96    76    75    2
    97    75    74    1
    98    30    31    1
    99    61    64    1
   100    61    62    1
   101   106    99   am
   102   100    99    2
   103   143   142    1
   104   134   131    1
   105   142   141    1
   106   142   145    1
   107    99    98    1
   108    64    65    1
   109   112   113    1
   110   118   120   ar
   111   118   117   ar
   112   120   121   ar
   113   115   114    2
   114   131   130    1
   115   131   132    1
   116   113   114    1
   117   113   116    1
   118   147   145    1
   119    31    32    2
   120    97    98    1
   121   133   132    2
   122    74    77    1
   123    74    73    1
   124   146   145    1
   125   146   148    1
   126    62    63    2
   127    98   101    1
   128    34    32    1
   129   117   116    1
   130   117   119   ar
   131    65    66    1
   132   121   119   ar
   133    77    78    1
   134    32    33    1
   135    73    71   am
   136    66    67    1
   137   122   123    1
   138    72    71    2
   139    71    70    1
   140   101   102    1
   141   123   126    1
   142   123   124    1
   143   128   127   ar
   144    78    80   ar
   145    78    79   ar
   146    80    82   ar
   147    67    68    1
   148    70    69    1
   149   126   127    1
   150   125   124    2
   151   127   129   ar
   152   102   103    1
   153   103   105   ar
   154   103   104   ar
   155    79    81   ar
   156    82    81   ar
