@<TRIPOS>MOLECULE
tmp/2hnuE00.pdb
 98 99 0 0 0
SMALL
GASTEIGER

@<TRIPOS>ATOM
      1  N         42.8730   19.3580   67.7880 N.3     4  CYS4       -0.1235
      2  CA        42.9580   18.2190   68.6860 C.3     4  CYS4        0.1677
      3  C         41.5940   17.5600   68.8660 C.2     4  CYS4        0.2270
      4  O         40.5780   18.0660   68.3830 O.2     4  CYS4       -0.2867
      5  CB        43.5510   18.6620   70.0220 C.3     4  CYS4        0.0956
      6  SG        45.1710   19.4920   69.8530 S.3     4  CYS4       -0.0801
      7  N         40.4760   19.1740   73.1710 N.3    15  CYS15      -0.1221
      8  CA        41.6320   18.9420   74.0200 C.3    15  CYS15       0.1808
      9  C         42.7540   19.9470   73.7860 C.2    15  CYS15       0.2601
     10  O         43.1490   20.1910   72.6480 O.2    15  CYS15      -0.2717
     11  CB        42.1720   17.5380   73.7690 C.3    15  CYS15       0.0970
     12  SG        40.9980   16.2180   74.1790 S.3    15  CYS15      -0.0800
     13  N         43.2730   20.5170   74.8660 N.am   16  PHE16      -0.1962
     14  CA        44.3840   21.4580   74.7730 C.3    16  PHE16       0.1771
     15  C         45.6420   20.8340   75.3600 C.2    16  PHE16       0.2620
     16  O         46.7500   21.3250   75.1430 O.2    16  PHE16      -0.2715
     17  CB        44.0590   22.7630   75.5010 C.3    16  PHE16       0.0574
     18  CG        43.1760   23.6770   74.7110 C.ar   16  PHE16      -0.0200
     19  CD1       41.8590   23.3250   74.4340 C.ar   16  PHE16      -0.0042
     20  CD2       43.6820   24.8620   74.1820 C.ar   16  PHE16      -0.0042
     21  CE1       41.0550   24.1390   73.6340 C.ar   16  PHE16      -0.0003
     22  CE2       42.8870   25.6800   73.3820 C.ar   16  PHE16      -0.0003
     23  CZ        41.5740   25.3170   73.1080 C.ar   16  PHE16      -0.0000
     24  N         45.4480   19.7460   76.1030 N.am   17  GLY17      -0.1940
     25  CA        46.5500   19.0190   76.7170 C.3    17  GLY17       0.1998
     26  C         46.0910   17.5980   77.0210 C.2    17  GLY17       0.2480
     27  O         44.8950   17.3170   76.9380 O.2    17  GLY17      -0.2729
     28  N         46.9990   16.6730   77.3690 N.am   18  PRO18      -0.2726
     29  CA        46.5360   15.3110   77.6590 C.3    18  PRO18       0.1402
     30  C         45.4660   15.2340   78.7550 C.2    18  PRO18       0.2269
     31  O         44.6960   14.2790   78.8010 O.2    18  PRO18      -0.2865
     32  CB        47.8250   14.5750   78.0360 C.3    18  PRO18       0.0296
     33  CG        48.7200   15.6650   78.5370 C.3    18  PRO18       0.0237
     34  CD        48.4530   16.7870   77.5630 C.3    18  PRO18       0.0939
     35  N         41.4090   12.9960   76.4010 N.3    38  CYS38      -0.1235
     36  CA        42.5260   13.7290   75.8160 C.3    38  CYS38       0.1677
     37  C         43.8790   13.0040   75.8730 C.2    38  CYS38       0.2270
     38  O         44.8340   13.3820   75.1840 O.2    38  CYS38      -0.2867
     39  CB        42.6290   15.1080   76.4790 C.3    38  CYS38       0.0956
     40  SG        41.1540   16.1540   76.2040 S.3    38  CYS38      -0.0801
     41  N         45.3850   11.5630   72.3670 N.3    41  GLU41      -0.1231
     42  CA        46.1820   12.4260   71.5010 C.3    41  GLU41       0.1699
     43  C         47.6850   12.1650   71.6460 C.2    41  GLU41       0.2592
     44  O         48.4470   12.3010   70.6860 O.2    41  GLU41      -0.2718
     45  CB        45.8580   13.8950   71.8170 C.3    41  GLU41       0.0402
     46  CG        46.4530   14.9050   70.8520 C.3    41  GLU41       0.1161
     47  CD        45.9600   14.7110   69.4280 C.2    41  GLU41       0.3649
     48  OE1       46.8000   14.4950   68.5340 O.co2  41  GLU41      -0.2457
     49  OE2       44.7340   14.7740   69.2040 O.co2  41  GLU41      -0.2457
     50  N         48.0970   11.7970   72.8540 N.am   42  ASN42      -0.1974
     51  CA        49.4930   11.5010   73.1580 C.3    42  ASN42       0.1688
     52  C         50.0800   10.4270   72.2430 C.2    42  ASN42       0.2292
     53  O         51.2880   10.3970   72.0140 O.2    42  ASN42      -0.2864
     54  CB        49.6300   11.0240   74.6150 C.3    42  ASN42       0.1181
     55  CG        49.8400   12.1680   75.6040 C.2    42  ASN42       0.2629
     56  OD1       49.7040   11.9830   76.8230 O.2    42  ASN42      -0.2716
     57  ND2       50.1930   13.3460   75.0910 N.am   42  ASN42      -0.0877
     58  N         48.8040    9.8070   69.0300 N.3    44  LEU44      -0.1231
     59  CA        48.4940   10.0940   67.6280 C.3    44  LEU44       0.1678
     60  C         49.7220   10.7440   67.0070 C.2    44  LEU44       0.2434
     61  O         50.2940   11.6670   67.5820 O.2    44  LEU44      -0.2733
     62  CB        47.2780   11.0230   67.5270 C.3    44  LEU44       0.0284
     63  CG        45.9880   10.4420   68.1030 C.3    44  LEU44       0.0019
     64  CD1       44.8430   11.4240   67.8680 C.3    44  LEU44       0.0001
     65  CD2       45.6860    9.0940   67.4420 C.3    44  LEU44       0.0001
     66  N         50.1380   10.2720   65.8150 N.am   45  PRO45      -0.2718
     67  CA        51.3090   10.7550   65.0710 C.3    45  PRO45       0.1535
     68  C         51.3580   12.1930   64.5390 C.2    45  PRO45       0.2599
     69  O         52.4360   12.7700   64.3960 O.2    45  PRO45      -0.2715
     70  CB        51.4450    9.7280   63.9490 C.3    45  PRO45       0.0310
     71  CG        50.0200    9.3630   63.6660 C.3    45  PRO45       0.0237
     72  CD        49.4360    9.2160   65.0580 C.3    45  PRO45       0.0939
     73  N         50.2190   12.7800   64.2190 N.am   46  SER46      -0.1937
     74  CA        50.2650   14.1430   63.7050 C.3    46  SER46       0.2040
     75  C         50.1230   15.1410   64.8400 C.2    46  SER46       0.2485
     76  O         49.4710   14.8580   65.8430 O.2    46  SER46      -0.2729
     77  CB        49.1510   14.3560   62.6800 C.3    46  SER46       0.2129
     78  OG        47.8810   14.0530   63.2410 O.3    46  SER46      -0.2179
     79  N         50.7640   16.3130   64.7160 N.am   47  PRO47      -0.2715
     80  CA        50.6450   17.3080   65.7830 C.3    47  PRO47       0.1536
     81  C         49.2690   17.9540   65.6640 C.2    47  PRO47       0.2598
     82  O         48.6860   17.9630   64.5800 O.2    47  PRO47      -0.2715
     83  CB        51.7730   18.2840   65.4670 C.3    47  PRO47       0.0310
     84  CG        51.8230   18.2470   63.9640 C.3    47  PRO47       0.0237
     85  CD        51.6920   16.7710   63.6660 C.3    47  PRO47       0.0939
     86  N         48.7330   18.4670   66.7670 N.am   48  CYS48      -0.1968
     87  CA        47.4270   19.1250   66.7220 C.3    48  CYS48       0.1712
     88  C         47.4890   20.4410   67.4800 C.2    48  CYS48       0.2296
     89  O         48.4130   20.6790   68.2640 O.2    48  CYS48      -0.2864
     90  CB        46.3320   18.2330   67.3250 C.3    48  CYS48       0.0983
     91  SG        46.4190   18.0480   69.1340 S.3    48  CYS48      -0.0798
     92  N         49.4970   23.0110   76.8750 N.3    70  PRO70      -0.2116
     93  CA        49.2250   21.5990   77.1560 C.3    70  PRO70       0.1372
     94  C         49.3510   21.1790   78.6250 C.2    70  PRO70       0.2244
     95  O         48.8590   20.1190   79.0070 O.2    70  PRO70      -0.2868
     96  CB        50.2230   20.8780   76.2530 C.3    70  PRO70       0.0268
     97  CG        50.2510   21.7790   75.0450 C.3    70  PRO70       0.0207
     98  CD        50.3800   23.1450   75.7010 C.3    70  PRO70       0.0892
@<TRIPOS>BOND
     1    77    78    1
     2    77    74    1
     3    71    70    1
     4    71    72    1
     5    85    84    1
     6    85    79    1
     7    74    73    1
     8    74    75    1
     9    70    67    1
    10    84    83    1
    11    73    68   am
    12    69    68    2
    13    68    67    1
    14    82    81    2
    15    79    75   am
    16    79    80    1
    17    75    76    2
    18    72    66    1
    19    67    66    1
    20    83    80    1
    21    81    80    1
    22    81    86   am
    23    66    60   am
    24    87    86    1
    25    87    90    1
    26    87    88    1
    27    60    61    2
    28    60    59    1
    29    90    91    1
    30    65    63    1
    31    88    89    2
    32    62    59    1
    33    62    63    1
    34    59    58    1
    35     1     2    1
    36    64    63    1
    37     4     3    2
    38    48    47   ar
    39     2     3    1
    40     2     5    1
    41    91     6    1
    42    49    47   ar
    43    47    46    1
    44     6     5    1
    45    44    43    2
    46    46    45    1
    47    42    43    1
    48    42    45    1
    49    42    41    1
    50    43    50   am
    51    53    52    2
    52    52    51    1
    53    10     9    2
    54    50    51    1
    55    23    22   ar
    56    23    21   ar
    57    51    54    1
    58     7     8    1
    59    22    20   ar
    60    21    19   ar
    61    11     8    1
    62    11    12    1
    63     9     8    1
    64     9    13   am
    65    12    40    1
    66    20    18   ar
    67    19    18   ar
    68    54    55    1
    69    18    17    1
    70    14    13    1
    71    14    15    1
    72    14    17    1
    73    97    98    1
    74    97    96    1
    75    57    55   am
    76    16    15    2
    77    38    37    2
    78    15    24   am
    79    55    56    2
    80    98    92    1
    81    36    37    1
    82    36    35    1
    83    36    39    1
    84    24    25    1
    85    40    39    1
    86    96    93    1
    87    25    26    1
    88    92    93    1
    89    27    26    2
    90    26    28   am
    91    93    94    1
    92    28    34    1
    93    28    29    1
    94    34    33    1
    95    29    32    1
    96    29    30    1
    97    32    33    1
    98    94    95    2
    99    30    31    2
