@<TRIPOS>MOLECULE
tmp/2hnxA00.pdb
 211 194 0 0 0
SMALL
GASTEIGER

@<TRIPOS>ATOM
      1  N         21.7360   55.2540   21.1890 N.3    21  PHE21      -0.1241
      2  CA        22.5930   54.0980   21.4610 C.3    21  PHE21       0.1605
      3  C         23.0040   54.0090   22.9280 C.2    21  PHE21       0.2264
      4  O         23.0630   52.9130   23.4750 O.2    21  PHE21      -0.2867
      5  CB        23.8000   54.0810   20.5160 C.3    21  PHE21       0.0534
      6  CG        24.5770   52.7700   20.5070 C.ar   21  PHE21      -0.0203
      7  CD1       23.9440   51.5580   20.2340 C.ar   21  PHE21      -0.0042
      8  CD2       25.9550   52.7640   20.7420 C.ar   21  PHE21      -0.0042
      9  CE1       24.6650   50.3530   20.2070 C.ar   21  PHE21      -0.0003
     10  CE2       26.6830   51.5620   20.7230 C.ar   21  PHE21      -0.0003
     11  CZ        26.0300   50.3630   20.4640 C.ar   21  PHE21      -0.0000
     12  N         20.0750   52.5250   24.6680 N.3    24  TYR24      -0.1227
     13  CA        20.0100   51.1080   24.3440 C.3    24  TYR24       0.1736
     14  C         21.0340   50.3280   25.1740 C.2    24  TYR24       0.2595
     15  O         20.7080   49.3090   25.7880 O.2    24  TYR24      -0.2718
     16  CB        20.2090   50.8730   22.8320 C.3    24  TYR24       0.0548
     17  CG        20.4080   49.4130   22.5090 C.ar   24  TYR24      -0.0200
     18  CD1       19.3250   48.5400   22.4640 C.ar   24  TYR24      -0.0009
     19  CD2       21.6890   48.8910   22.2960 C.ar   24  TYR24      -0.0009
     20  CE1       19.5080   47.1840   22.2000 C.ar   24  TYR24       0.0417
     21  CE2       21.8900   47.5340   22.0360 C.ar   24  TYR24       0.0417
     22  CZ        20.7920   46.6840   21.9900 C.ar   24  TYR24       0.1957
     23  OH        20.9690   45.3370   21.7260 O.3    24  TYR24      -0.2866
     24  N         22.2740   50.8120   25.2040 N.am   25  MET25      -0.1979
     25  CA        23.2940   50.1530   26.0000 C.3    25  MET25       0.1605
     26  C         22.9570   50.0900   27.4920 C.2    25  MET25       0.2287
     27  O         23.2410   49.0780   28.1550 O.2    25  MET25      -0.2864
     28  CB        24.6430   50.8160   25.7810 C.3    25  MET25       0.0413
     29  CG        25.2570   50.4480   24.4180 C.3    25  MET25       0.0598
     30  SD        26.9790   50.9930   24.3320 S.3    25  MET25      -0.1393
     31  CE        26.7570   52.7510   24.2350 C.3    25  MET25       0.0692
     32  N         20.4990   47.2890   27.9810 N.3    28  VAL28      -0.1245
     33  CA        21.1900   46.0000   27.8660 C.3    28  VAL28       0.1561
     34  C         21.9550   45.6880   29.1500 C.2    28  VAL28       0.2260
     35  O         22.1770   44.5270   29.4800 O.2    28  VAL28      -0.2867
     36  CB        22.1410   46.0110   26.6370 C.3    28  VAL28       0.0252
     37  CG1       23.1610   44.8590   26.6800 C.3    28  VAL28       0.0019
     38  CG2       21.3380   45.9800   25.3460 C.3    28  VAL28       0.0019
     39  N         25.0070   47.5680   29.9430 N.3    30  VAL30      -0.1245
     40  CA        26.3990   47.9310   29.7350 C.3    30  VAL30       0.1561
     41  C         26.8170   48.9630   30.7800 C.2    30  VAL30       0.2260
     42  O         26.0930   49.9240   31.0190 O.2    30  VAL30      -0.2867
     43  CB        26.6010   48.4930   28.3060 C.3    30  VAL30       0.0252
     44  CG1       28.0550   48.8330   28.0480 C.3    30  VAL30       0.0019
     45  CG2       26.1150   47.4670   27.2650 C.3    30  VAL30       0.0019
     46  N         32.4010   51.3360   29.6380 N.3    34  THR34      -0.1218
     47  CA        32.1570   50.7350   28.3190 C.3    34  THR34       0.1862
     48  C         31.1710   51.5480   27.4730 C.2    34  THR34       0.2287
     49  O         31.3840   51.7260   26.2830 O.2    34  THR34      -0.2866
     50  CB        31.7040   49.2800   28.4780 C.3    34  THR34       0.1770
     51  OG1       32.7570   48.5670   29.1170 O.3    34  THR34      -0.2211
     52  CG2       31.4300   48.6270   27.1220 C.3    34  THR34       0.0375
     53  N         32.5130   52.8710   24.0390 N.3    38  ALA38      -0.1245
     54  CA        31.8080   52.2350   22.9110 C.3    38  ALA38       0.1562
     55  C         30.9220   53.2190   22.1540 C.2    38  ALA38       0.2260
     56  O         30.7940   53.1240   20.9370 O.2    38  ALA38      -0.2867
     57  CB        30.9820   51.0340   23.3830 C.3    38  ALA38       0.0290
     58  N         32.6700   55.2170   19.4300 N.3    41  ALA41      -0.1245
     59  CA        33.2130   54.4870   18.2900 C.3    41  ALA41       0.1562
     60  C         32.4330   54.7570   17.0190 C.2    41  ALA41       0.2260
     61  O         31.2070   54.9400   17.0450 O.2    41  ALA41      -0.2867
     62  CB        33.2640   53.0040   18.5740 C.3    41  ALA41       0.0290
     63  N         32.3940   52.5810   14.0210 N.3    43  PRO43      -0.2116
     64  CA        32.9020   51.3540   13.4100 C.3    43  PRO43       0.1372
     65  C         32.7270   51.2500   11.9100 C.2    43  PRO43       0.2244
     66  O         31.8610   51.9070   11.3250 O.2    43  PRO43      -0.2868
     67  CB        32.0690   50.2450   14.0560 C.3    43  PRO43       0.0268
     68  CG        31.2670   50.8820   15.1140 C.3    43  PRO43       0.0207
     69  CD        31.2160   52.3450   14.8730 C.3    43  PRO43       0.0892
     70  N         31.7140   48.1740    9.3030 N.3    45  MET45      -0.1245
     71  CA        31.1280   46.8550    9.3090 C.3    45  MET45       0.1570
     72  C         31.4120   46.2470    7.9600 C.2    45  MET45       0.2261
     73  O         31.1390   46.8670    6.9350 O.2    45  MET45      -0.2867
     74  CB        29.6280   46.9530    9.5660 C.3    45  MET45       0.0387
     75  CG        28.9220   45.6380    9.5200 C.3    45  MET45       0.0595
     76  SD        27.2580   45.7830   10.1360 S.3    45  MET45      -0.1393
     77  CE        26.6440   47.2560    9.3030 C.3    45  MET45       0.0692
     78  N         32.9580   43.7680   12.7300 N.3    58  SER58      -0.1217
     79  CA        32.8940   45.1690   13.1510 C.3    58  SER58       0.1889
     80  C         34.2810   45.5740   13.5940 C.2    58  SER58       0.2288
     81  O         34.8100   44.9720   14.5380 O.2    58  SER58      -0.2866
     82  CB        31.9020   45.3570   14.3080 C.3    58  SER58       0.2089
     83  OG        31.8520   46.7170   14.7480 O.3    58  SER58      -0.2183
     84  N         36.5860   48.7270   15.0280 N.3    60  SER60      -0.1217
     85  CA        36.5890   50.0880   15.5750 C.3    60  SER60       0.1889
     86  C         37.7560   50.2600   16.5220 C.2    60  SER60       0.2288
     87  O         38.4750   49.3010   16.8270 O.2    60  SER60      -0.2866
     88  CB        35.2600   50.4370   16.2770 C.3    60  SER60       0.2089
     89  OG        35.1330   49.7970   17.5290 O.3    60  SER60      -0.2183
     90  N         37.4220   50.8110   19.5150 N.3    62  PHE62      -0.1227
     91  CA        36.9780   50.1670   20.7500 C.3    62  PHE62       0.1736
     92  C         37.2920   48.6750   20.7430 C.2    62  PHE62       0.2595
     93  O         37.9200   48.1560   21.6750 O.2    62  PHE62      -0.2718
     94  CB        35.4890   50.4220   20.9940 C.3    62  PHE62       0.0547
     95  CG        34.9210   49.6300   22.1410 C.ar   62  PHE62      -0.0202
     96  CD1       35.3790   49.8250   23.4400 C.ar   62  PHE62      -0.0042
     97  CD2       33.9290   48.6840   21.9190 C.ar   62  PHE62      -0.0042
     98  CE1       34.8520   49.0840   24.5120 C.ar   62  PHE62      -0.0003
     99  CE2       33.4020   47.9430   22.9810 C.ar   62  PHE62      -0.0003
    100  CZ        33.8650   48.1450   24.2750 C.ar   62  PHE62      -0.0000
    101  N         36.8600   47.9840   19.6860 N.am   63  LYS63      -0.1980
    102  CA        37.0640   46.5460   19.6050 C.3    63  LYS63       0.1596
    103  C         36.8880   46.0910   18.1710 C.2    63  LYS63       0.2287
    104  O         36.2100   46.7380   17.3760 O.2    63  LYS63      -0.2864
    105  CB        36.0730   45.8130   20.5200 C.3    63  LYS63       0.0298
    106  CG        36.5400   44.4510   21.0040 C.3    63  LYS63       0.0038
    107  CD        35.6860   43.9290   22.1610 C.3    63  LYS63       0.0206
    108  CE        36.3450   44.1620   23.5230 C.3    63  LYS63       0.1093
    109  NZ        36.4410   45.5910   23.9070 N.3    63  LYS63      -0.1314
    110  N         35.3890   42.8450   16.3010 N.3    65  THR65      -0.1218
    111  CA        34.6350   41.6050   16.5420 C.3    65  THR65       0.1862
    112  C         34.2400   40.9790   15.2210 C.2    65  THR65       0.2287
    113  O         34.2060   41.6430   14.1960 O.2    65  THR65      -0.2866
    114  CB        33.3570   41.8370   17.3670 C.3    65  THR65       0.1770
    115  OG1       32.5100   42.7590   16.6660 O.3    65  THR65      -0.2211
    116  CG2       33.6960   42.3750   18.7490 C.3    65  THR65       0.0375
    117  N         29.8120   39.2500   22.8930 N.3    79  THR79      -0.1203
    118  CA        29.5780   40.5840   22.3320 C.3    79  THR79       0.1994
    119  C         30.7190   41.5580   22.6560 C.2    79  THR79       0.2618
    120  O         31.5790   41.2510   23.4900 O.2    79  THR79      -0.2717
    121  CB        28.2830   41.1590   22.8660 C.3    79  THR79       0.1784
    122  OG1       28.4080   41.3250   24.2840 O.3    79  THR79      -0.2211
    123  CG2       27.1220   40.2240   22.5540 C.3    79  THR79       0.0376
    124  N         30.7140   42.7190   22.0090 N.am   80  ALA80      -0.1965
    125  CA        31.7500   43.7390   22.2020 C.3    80  ALA80       0.1728
    126  C         31.8500   44.2100   23.6590 C.2    80  ALA80       0.2616
    127  O         32.9400   44.5950   24.1180 O.2    80  ALA80      -0.2715
    128  CB        31.5170   44.9030   21.2940 C.3    80  ALA80       0.0334
    129  N         30.7180   44.1750   24.3650 N.am   81  ASP81      -0.1971
    130  CA        30.6550   44.5400   25.7860 C.3    81  ASP81       0.1709
    131  C         30.8570   43.3470   26.7210 C.2    81  ASP81       0.2293
    132  O         30.6600   43.4550   27.9490 O.2    81  ASP81      -0.2864
    133  CB        29.3420   45.2720   26.1170 C.3    81  ASP81       0.1436
    134  CG        28.1070   44.4400   25.8060 C.2    81  ASP81       0.3671
    135  OD1       27.9740   43.9820   24.6480 O.co2  81  ASP81      -0.2456
    136  OD2       27.2560   44.2560   26.7090 O.co2  81  ASP81      -0.2456
    137  N         29.2990   40.3300   26.8910 N.3    83  ARG83      -0.1245
    138  CA        28.2170   39.4190   27.2100 C.3    83  ARG83       0.1563
    139  C         28.4750   38.1110   26.4790 C.2    83  ARG83       0.2260
    140  O         28.9360   38.1230   25.3300 O.2    83  ARG83      -0.2867
    141  CB        26.8620   39.9800   26.7830 C.3    83  ARG83       0.0307
    142  CG        26.2390   40.9620   27.7760 C.3    83  ARG83       0.0489
    143  CD        24.9700   41.5950   27.1900 C.3    83  ARG83       0.2205
    144  NE        25.3030   42.4080   26.0250 N.pl3  83  ARG83      -0.0865
    145  CZ        24.7040   42.3490   24.8380 C.cat  83  ARG83       0.5346
    146  NH1       23.6580   41.5470   24.6200 N.pl3  83  ARG83       0.1354
    147  NH2       25.1350   43.1440   23.8660 N.pl3  83  ARG83       0.1354
    148  N         19.6590   37.8860   20.4890 N.3   100  GLN100     -0.1245
    149  CA        20.6650   37.4960   21.4880 C.3   100  GLN100      0.1566
    150  C         19.9610   37.2020   22.8120 C.2   100  GLN100      0.2260
    151  O         19.1350   38.0030   23.2620 O.2   100  GLN100     -0.2867
    152  CB        21.6900   38.6020   21.6900 C.3   100  GLN100      0.0367
    153  CG        22.4890   38.9310   20.4520 C.3   100  GLN100      0.0905
    154  CD        23.4650   40.0650   20.6750 C.2   100  GLN100      0.2608
    155  OE1       24.5180   40.1510   20.0150 O.2   100  GLN100     -0.2717
    156  NE2       23.1140   40.9680   21.5930 N.am  100  GLN100     -0.0878
    157  N         18.5500   42.7370   17.1240 N.3   109  ILE109     -0.1245
    158  CA        19.2240   43.6740   16.2500 C.3   109  ILE109      0.1561
    159  C         18.7620   43.3690   14.8320 C.2   109  ILE109      0.2260
    160  O         18.8990   42.2330   14.3630 O.2   109  ILE109     -0.2867
    161  CB        20.7750   43.5080   16.3280 C.3   109  ILE109      0.0252
    162  CG1       21.3030   43.7920   17.7430 C.3   109  ILE109      0.0019
    163  CG2       21.4280   44.4350   15.3410 C.3   109  ILE109      0.0019
    164  CD1       22.6980   43.2240   18.0060 C.3   109  ILE109      0.0001
    165  N         18.9680   44.3320   10.7370 N.3   111  ARG111     -0.1245
    166  CA        19.8400   44.9820    9.7640 C.3   111  ARG111      0.1563
    167  C         19.1030   44.9480    8.4320 C.2   111  ARG111      0.2260
    168  O         18.6160   43.9060    8.0090 O.2   111  ARG111     -0.2867
    169  CB        21.2060   44.2670    9.6780 C.3   111  ARG111      0.0307
    170  CG        22.0850   44.4310   10.9370 C.3   111  ARG111      0.0489
    171  CD        23.2900   43.4730   10.9260 C.3   111  ARG111      0.2205
    172  NE        24.1460   43.5620   12.1280 N.pl3 111  ARG111     -0.0865
    173  CZ        24.1080   42.7330   13.1710 C.cat 111  ARG111      0.5346
    174  NH1       23.2580   41.7130   13.2270 N.pl3 111  ARG111      0.1354
    175  NH2       24.9590   42.9230   14.1780 N.pl3 111  ARG111      0.1354
    176  N         20.7180   49.7600   11.0240 N.3   120  VAL120     -0.1245
    177  CA        20.7700   48.7770   12.1100 C.3   120  VAL120      0.1561
    178  C         19.8910   49.3020   13.2400 C.2   120  VAL120      0.2260
    179  O         20.1390   50.3990   13.7570 O.2   120  VAL120     -0.2867
    180  CB        22.2170   48.5550   12.6190 C.3   120  VAL120      0.0252
    181  CG1       22.2600   47.4320   13.6400 C.3   120  VAL120      0.0019
    182  CG2       23.1680   48.2430   11.4610 C.3   120  VAL120      0.0019
    183  N         18.5080   48.4610   16.9860 N.3   122  CYS122     -0.1235
    184  CA        18.7780   47.6420   18.1570 C.3   122  CYS122      0.1677
    185  C         17.6660   47.8790   19.1590 C.2   122  CYS122      0.2270
    186  O         17.3930   49.0250   19.5210 O.2   122  CYS122     -0.2867
    187  CB        20.1190   48.0260   18.7900 C.3   122  CYS122      0.0956
    188  SG        21.4680   48.1120   17.6230 S.3   122  CYS122     -0.0801
    189  N         21.0730   52.9990   14.0090 N.3   131  ARG131     -0.1245
    190  CA        22.4230   53.3080   13.5530 C.3   131  ARG131      0.1563
    191  C         22.4840   53.1470   12.0590 C.2   131  ARG131      0.2260
    192  O         22.0700   52.1140   11.5200 O.2   131  ARG131     -0.2867
    193  CB        23.4380   52.4290   14.2670 C.3   131  ARG131      0.0307
    194  CG        23.6220   52.9800   15.6800 C.3   131  ARG131      0.0489
    195  CD        24.1320   52.0080   16.6360 C.3   131  ARG131      0.2205
    196  NE        25.5570   51.7150   16.4890 N.pl3 131  ARG131     -0.0865
    197  CZ        26.5630   52.4330   16.9940 C.cat 131  ARG131      0.5346
    198  NH1       26.3780   53.6100   17.5870 N.pl3 131  ARG131      0.1354
    199  NH2       27.7920   51.9720   16.8550 N.pl3 131  ARG131      0.1354
    200  N         24.5530   53.1620    8.4920 N.3   133  TYR133     -0.1241
    201  CA        25.8330   52.9430    7.8310 C.3   133  TYR133      0.1605
    202  C         25.7260   53.2730    6.3400 C.2   133  TYR133      0.2264
    203  O         24.6990   53.0280    5.7070 O.2   133  TYR133     -0.2867
    204  CB        26.2780   51.4800    7.9880 C.3   133  TYR133      0.0534
    205  CG        26.7280   51.0840    9.3830 C.ar  133  TYR133     -0.0201
    206  CD1       25.8020   50.8570   10.4020 C.ar  133  TYR133     -0.0009
    207  CD2       28.0920   50.9220    9.6690 C.ar  133  TYR133     -0.0009
    208  CE1       26.2280   50.4880   11.6770 C.ar  133  TYR133      0.0417
    209  CE2       28.5320   50.5440   10.9330 C.ar  133  TYR133      0.0417
    210  CZ        27.6000   50.3380   11.9330 C.ar  133  TYR133      0.1957
    211  OH        28.0430   49.9740   13.1820 O.3   133  TYR133     -0.2866
@<TRIPOS>BOND
     1   203   202    2
     2   202   201    1
     3    73    72    2
     4   201   204    1
     5   201   200    1
     6    72    71    1
     7   204   205    1
     8   168   167    2
     9   167   166    1
    10    70    71    1
    11    77    76    1
    12    71    74    1
    13   205   207   ar
    14   205   206   ar
    15    75    74    1
    16    75    76    1
    17   207   209   ar
    18   169   166    1
    19   169   170    1
    20   166   165    1
    21   206   208   ar
    22   171   170    1
    23   171   172    1
    24   209   210   ar
    25   176   177    1
    26    66    65    2
    27   182   180    1
    28   192   191    2
    29   208   210   ar
    30    65    64    1
    31   210   211    1
    32   191   190    1
    33   177   180    1
    34   177   178    1
    35   172   173    2
    36   180   181    1
    37    78    79    1
    38    79    80    1
    39    79    82    1
    40   173   174    1
    41   173   175    1
    42   178   179    2
    43    64    63    1
    44    64    67    1
    45   190   189    1
    46   190   193    1
    47    80    81    2
    48    63    69    1
    49    67    68    1
    50   113   112    2
    51   193   194    1
    52    82    83    1
    53   160   159    2
    54   159   158    1
    55    69    68    1
    56    84    85    1
    57   112   111    1
    58   163   161    1
    59    85    88    1
    60    85    86    1
    61   194   195    1
    62   158   161    1
    63   158   157    1
    64    88    89    1
    65   110   111    1
    66   161   162    1
    67   196   195    1
    68   196   197    2
    69    86    87    2
    70   111   114    1
    71   115   114    1
    72   199   197    1
    73   183   184    1
    74   197   198    1
    75    60    61    2
    76    60    59    1
    77   114   116    1
    78   104   103    2
    79   188   187    1
    80   162   164    1
    81   184   187    1
    82   184   185    1
    83   103   102    1
    84    59    62    1
    85    59    58    1
    86   185   186    2
    87    90    91    1
    88   102   101    1
    89   102   105    1
    90   101    92   am
    91   155   154    2
    92     9     7   ar
    93     9    11   ar
    94     7     6   ar
    95   153   154    1
    96   153   152    1
    97    11    10   ar
    98   148   149    1
    99     6     5    1
   100     6     8   ar
   101     5     2    1
   102   105   106    1
   103   154   156   am
   104    10     8   ar
   105    92    91    1
   106    92    93    2
   107    91    94    1
   108    56    55    2
   109    94    95    1
   110   106   107    1
   111     1     2    1
   112   128   125    1
   113     2     3    1
   114   149   152    1
   115   149   150    1
   116    23    22    1
   117    97    95   ar
   118    97    99   ar
   119    22    21   ar
   120    22    20   ar
   121   124   125    1
   122   124   119   am
   123    21    19   ar
   124    95    96   ar
   125    55    54    1
   126   107   108    1
   127    20    18   ar
   128   125   126    1
   129    19    17   ar
   130   118   119    1
   131   118   121    1
   132   118   117    1
   133    18    17   ar
   134    17    16    1
   135   123   121    1
   136   119   120    2
   137   150   151    2
   138    16    13    1
   139   121   122    1
   140    54    57    1
   141    54    53    1
   142     3     4    2
   143    99   100   ar
   144    96    98   ar
   145   108   109    1
   146   126   127    2
   147   126   129   am
   148   147   145    1
   149    31    30    1
   150   100    98   ar
   151    30    29    1
   152    13    12    1
   153    13    14    1
   154   129   130    1
   155    29    28    1
   156   146   145    1
   157   135   134   ar
   158   145   144    2
   159    14    24   am
   160    14    15    2
   161    24    25    1
   162   140   139    2
   163    38    36    1
   164    28    25    1
   165   130   133    1
   166   130   131    1
   167   134   133    1
   168   134   136   ar
   169    25    26    1
   170   144   143    1
   171    49    48    2
   172   139   138    1
   173    36    37    1
   174    36    33    1
   175   131   132    2
   176   141   138    1
   177   141   142    1
   178   137   138    1
   179    52    50    1
   180   143   142    1
   181    45    43    1
   182    48    47    1
   183    26    27    2
   184    33    32    1
   185    33    34    1
   186    44    43    1
   187    43    40    1
   188    47    50    1
   189    47    46    1
   190    50    51    1
   191    34    35    2
   192    40    39    1
   193    40    41    1
   194    41    42    2
