@<TRIPOS>MOLECULE
tmp/2hnyA00.pdb
 144 142 0 0 0
SMALL
GASTEIGER

@<TRIPOS>ATOM
      1  N          9.3060  -31.5780   23.1050 N.3    92  PRO92      -0.2116
      2  CA         8.7140  -31.4680   21.7730 C.3    92  PRO92       0.1372
      3  C          7.7800  -30.2590   21.6570 C.2    92  PRO92       0.2244
      4  O          7.1790  -29.8220   22.6390 O.2    92  PRO92      -0.2868
      5  CB         7.9400  -32.7760   21.6430 C.3    92  PRO92       0.0268
      6  CG         8.6570  -33.7070   22.5610 C.3    92  PRO92       0.0207
      7  CD         8.9010  -32.8400   23.7440 C.3    92  PRO92       0.0892
      8  N          4.4740  -32.6750   16.0020 N.3    97  LEU97      -0.1231
      9  CA         3.8810  -34.0000   16.0750 C.3    97  LEU97       0.1693
     10  C          3.0430  -34.3060   14.8390 C.2    97  LEU97       0.2591
     11  O          2.6140  -33.3960   14.1210 O.2    97  LEU97      -0.2718
     12  CB         2.9910  -34.0970   17.2990 C.3    97  LEU97       0.0284
     13  CG         3.5840  -33.5390   18.5830 C.3    97  LEU97       0.0019
     14  CD1        2.5610  -33.6260   19.6840 C.3    97  LEU97       0.0001
     15  CD2        4.8200  -34.3070   18.9500 C.3    97  LEU97       0.0001
     16  N          2.8180  -35.5940   14.5900 N.am   98  LYS98      -0.1980
     17  CA         1.9890  -36.0350   13.4680 C.3    98  LYS98       0.1596
     18  C          0.6720  -36.4640   14.1210 C.2    98  LYS98       0.2287
     19  O          0.6820  -37.1710   15.1410 O.2    98  LYS98      -0.2864
     20  CB         2.6430  -37.2190   12.7510 C.3    98  LYS98       0.0298
     21  CG         4.0590  -36.9210   12.2550 C.3    98  LYS98       0.0038
     22  CD         4.6980  -38.1360   11.5830 C.3    98  LYS98       0.0206
     23  CE         6.1310  -37.8400   11.1380 C.3    98  LYS98       0.1093
     24  NZ         6.7680  -39.0100   10.4580 N.3    98  LYS98      -0.1314
     25  N         -2.6300  -38.3130   15.2900 N.3   100  LYS100     -0.1245
     26  CA        -2.9310  -39.7180   15.5020 C.3   100  LYS100      0.1561
     27  C         -4.4340  -39.8110   15.6600 C.2   100  LYS100      0.2260
     28  O         -5.1060  -38.7890   15.8520 O.2   100  LYS100     -0.2867
     29  CB        -2.2570  -40.2330   16.7740 C.3   100  LYS100      0.0271
     30  CG        -0.7680  -40.1250   16.7500 C.3   100  LYS100      0.0035
     31  CD        -0.2200  -40.9180   15.6050 C.3   100  LYS100      0.0206
     32  CE         1.2420  -40.6290   15.4130 C.3   100  LYS100      0.1093
     33  NZ         1.7710  -41.3770   14.2390 N.3   100  LYS100     -0.1314
     34  N         -4.6360  -41.1690   21.2460 N.3   103  VAL103     -0.1245
     35  CA        -3.4620  -40.9010   22.0740 C.3   103  VAL103      0.1561
     36  C         -3.8610  -41.2060   23.5050 C.2   103  VAL103      0.2260
     37  O         -4.8880  -40.7420   23.9860 O.2   103  VAL103     -0.2867
     38  CB        -2.9890  -39.4430   21.9820 C.3   103  VAL103      0.0252
     39  CG1       -1.9220  -39.1870   23.0220 C.3   103  VAL103      0.0019
     40  CG2       -2.4180  -39.1670   20.6030 C.3   103  VAL103      0.0019
     41  N          3.4710  -44.8270   18.4240 N.3   176  VAL176     -0.1245
     42  CA         4.4410  -43.8290   18.8220 C.3   176  VAL176      0.1561
     43  C          4.3740  -43.6360   20.3250 C.2   176  VAL176      0.2260
     44  O          3.2860  -43.4950   20.8830 O.2   176  VAL176     -0.2867
     45  CB         4.1530  -42.5030   18.0850 C.3   176  VAL176      0.0252
     46  CG1        5.0320  -41.3890   18.5980 C.3   176  VAL176      0.0019
     47  CG2        4.3880  -42.7000   16.6130 C.3   176  VAL176      0.0019
     48  N          6.0260  -41.4150   23.6940 N.3   178  TYR178     -0.1241
     49  CA         6.8300  -40.3150   24.2370 C.3   178  TYR178      0.1605
     50  C          6.9150  -40.4650   25.7530 C.2   178  TYR178      0.2264
     51  O          5.8730  -40.5510   26.4180 O.2   178  TYR178     -0.2867
     52  CB         6.2080  -38.9540   23.9130 C.3   178  TYR178      0.0534
     53  CG         6.9300  -37.7960   24.5880 C.ar  178  TYR178     -0.0201
     54  CD1        6.3630  -37.1180   25.6760 C.ar  178  TYR178     -0.0009
     55  CD2        8.1990  -37.3970   24.1590 C.ar  178  TYR178     -0.0009
     56  CE1        7.0490  -36.0730   26.3120 C.ar  178  TYR178      0.0417
     57  CE2        8.8890  -36.3570   24.7940 C.ar  178  TYR178      0.0417
     58  CZ         8.3110  -35.7060   25.8610 C.ar  178  TYR178      0.1957
     59  OH         9.0150  -34.7030   26.4720 O.3   178  TYR178     -0.2866
     60  N          3.0290  -41.1430   26.8010 N.3   185  TYR185     -0.1227
     61  CA         1.9620  -40.8210   25.8770 C.3   185  TYR185      0.1736
     62  C          2.1230  -41.8450   24.7860 C.2   185  TYR185      0.2595
     63  O          3.2280  -42.0550   24.2910 O.2   185  TYR185     -0.2718
     64  CB         2.0940  -39.4000   25.3360 C.3   185  TYR185      0.0548
     65  CG         1.8830  -38.3480   26.4040 C.ar  185  TYR185     -0.0200
     66  CD1        2.8460  -38.1180   27.3900 C.ar  185  TYR185     -0.0009
     67  CD2        0.7100  -37.5980   26.4460 C.ar  185  TYR185     -0.0009
     68  CE1        2.6400  -37.1570   28.3980 C.ar  185  TYR185      0.0417
     69  CE2        0.4940  -36.6460   27.4440 C.ar  185  TYR185      0.0417
     70  CZ         1.4560  -36.4290   28.4160 C.ar  185  TYR185      0.1957
     71  OH         1.2200  -35.5030   29.4170 O.3   185  TYR185     -0.2866
     72  N          1.0220  -42.5070   24.4490 N.am  186  VAL186     -0.1966
     73  CA         1.0310  -43.5520   23.4400 C.3   186  VAL186      0.1727
     74  C         -0.0320  -43.2850   22.3820 C.2   186  VAL186      0.2616
     75  O         -1.2280  -43.2190   22.6780 O.2   186  VAL186     -0.2715
     76  CB         0.7860  -44.9220   24.1000 C.3   186  VAL186      0.0290
     77  CG1        1.2960  -46.0280   23.2050 C.3   186  VAL186      0.0023
     78  CG2        1.4730  -44.9670   25.4630 C.3   186  VAL186      0.0023
     79  N          0.4150  -43.1230   21.1420 N.am  187  GLY187     -0.1955
     80  CA        -0.5170  -42.8560   20.0670 C.3   187  GLY187      0.1869
     81  C         -0.4040  -43.8010   18.8890 C.2   187  GLY187      0.2309
     82  O          0.6520  -44.4000   18.6300 O.2   187  GLY187     -0.2863
     83  N         -5.1110  -33.2820   26.4240 N.3   224  PHE224     -0.1241
     84  CA        -4.2100  -33.3720   27.5610 C.3   224  PHE224      0.1605
     85  C         -3.5410  -32.0200   27.8030 C.2   224  PHE224      0.2264
     86  O         -3.1700  -31.3190   26.8590 O.2   224  PHE224     -0.2867
     87  CB        -3.1300  -34.4000   27.2890 C.3   224  PHE224      0.0534
     88  CG        -3.6410  -35.7810   27.1170 C.ar  224  PHE224     -0.0203
     89  CD1       -4.3270  -36.4070   28.1430 C.ar  224  PHE224     -0.0042
     90  CD2       -3.3760  -36.4880   25.9520 C.ar  224  PHE224     -0.0042
     91  CE1       -4.7340  -37.7200   28.0190 C.ar  224  PHE224     -0.0003
     92  CE2       -3.7770  -37.8010   25.8220 C.ar  224  PHE224     -0.0003
     93  CZ        -4.4580  -38.4200   26.8600 C.ar  224  PHE224     -0.0000
     94  N         -0.3850  -30.2340   28.8260 N.3   226  TRP226     -0.1241
     95  CA         1.0410  -30.4810   28.9730 C.3   226  TRP226      0.1605
     96  C          1.8600  -29.2310   28.6690 C.2   226  TRP226      0.2264
     97  O          1.6480  -28.5750   27.6400 O.2   226  TRP226     -0.2867
     98  CB         1.4280  -31.6210   28.0220 C.3   226  TRP226      0.0550
     99  CG         2.8770  -31.9640   27.9790 C.ar  226  TRP226      0.0003
    100  CD1        3.5790  -32.7130   28.8830 C.ar  226  TRP226      0.0946
    101  CD2        3.8150  -31.5540   26.9790 C.ar  226  TRP226      0.0152
    102  NE1        4.8990  -32.7940   28.5050 N.ar  226  TRP226     -0.2442
    103  CE2        5.0720  -32.0910   27.3400 C.ar  226  TRP226      0.0810
    104  CE3        3.7160  -30.7760   25.8120 C.ar  226  TRP226      0.0012
    105  CZ2        6.2300  -31.8750   26.5720 C.ar  226  TRP226      0.0191
    106  CZ3        4.8680  -30.5600   25.0490 C.ar  226  TRP226      0.0001
    107  CH2        6.1080  -31.1090   25.4350 C.ar  226  TRP226      0.0015
    108  N         -3.4900  -30.4640   24.3940 N.3   231  LEU231     -0.1231
    109  CA        -3.3090  -31.4120   23.2960 C.3   231  LEU231      0.1693
    110  C         -4.3690  -32.4400   22.9750 C.2   231  LEU231      0.2592
    111  O         -4.8190  -33.1910   23.8350 O.2   231  LEU231     -0.2718
    112  CB        -1.9910  -32.1550   23.4980 C.3   231  LEU231      0.0284
    113  CG        -0.7810  -31.2250   23.5740 C.3   231  LEU231      0.0019
    114  CD1        0.4390  -31.9500   24.1240 C.3   231  LEU231      0.0001
    115  CD2       -0.5210  -30.6790   22.1860 C.3   231  LEU231      0.0001
    116  N         -4.7180  -32.4860   21.6980 N.am  232  HIS232     -0.1962
    117  CA        -5.6880  -33.4300   21.1740 C.3   232  HIS232      0.1772
    118  C         -4.8940  -34.3770   20.2830 C.2   232  HIS232      0.2462
    119  O         -3.7020  -34.1780   20.0720 O.2   232  HIS232     -0.2730
    120  CB        -6.7210  -32.6970   20.3170 C.3   232  HIS232      0.0785
    121  CG        -7.8070  -32.0270   21.1010 C.ar  232  HIS232      0.0821
    122  ND1       -8.9020  -32.7100   21.5900 N.ar  232  HIS232     -0.2267
    123  CD2       -7.9870  -30.7290   21.4440 C.ar  232  HIS232      0.1154
    124  CE1       -9.7110  -31.8600   22.1950 C.ar  232  HIS232      0.1986
    125  NE2       -9.1800  -30.6520   22.1210 N.ar  232  HIS232     -0.2212
    126  N         -5.5380  -35.4270   19.7600 N.am  233  PRO233     -0.2727
    127  CA        -4.8230  -36.3590   18.8860 C.3   233  PRO233      0.1402
    128  C         -4.6770  -35.7700   17.4850 C.2   233  PRO233      0.2269
    129  O         -3.7920  -36.1540   16.7310 O.2   233  PRO233     -0.2865
    130  CB        -5.7320  -37.5880   18.8690 C.3   233  PRO233      0.0296
    131  CG        -6.4590  -37.5070   20.1570 C.3   233  PRO233      0.0237
    132  CD        -6.7720  -36.0440   20.2720 C.3   233  PRO233      0.0939
    133  N         -1.2820  -30.4560   13.0190 N.3   314  TYR314     -0.1241
    134  CA        -0.0320  -31.1830   13.2270 C.3   314  TYR314      0.1605
    135  C          0.7790  -31.3430   11.9620 C.2   314  TYR314      0.2264
    136  O          0.3250  -31.0540   10.8580 O.2   314  TYR314     -0.2867
    137  CB        -0.2970  -32.5600   13.8360 C.3   314  TYR314      0.0534
    138  CG        -0.7040  -32.5070   15.2900 C.ar  314  TYR314     -0.0201
    139  CD1        0.1040  -31.8790   16.2370 C.ar  314  TYR314     -0.0009
    140  CD2       -1.8890  -33.0910   15.7190 C.ar  314  TYR314     -0.0009
    141  CE1       -0.2590  -31.8320   17.5780 C.ar  314  TYR314      0.0417
    142  CE2       -2.2670  -33.0550   17.0600 C.ar  314  TYR314      0.0417
    143  CZ        -1.4490  -32.4230   17.9860 C.ar  314  TYR314      0.1957
    144  OH        -1.8300  -32.3830   19.3130 O.3   314  TYR314     -0.2866
@<TRIPOS>BOND
     1    24    23    1
     2   136   135    2
     3    23    22    1
     4    22    21    1
     5   135   134    1
     6    21    20    1
     7    20    17    1
     8   133   134    1
     9   134   137    1
    10    17    18    1
    11    17    16    1
    12   137   138    1
    13    11    10    2
    14    18    19    2
    15    33    32    1
    16    16    10   am
    17    10     9    1
    18   138   140   ar
    19   138   139   ar
    20    25    26    1
    21    32    31    1
    22    26    27    1
    23    26    29    1
    24    31    30    1
    25    27    28    2
    26   140   142   ar
    27     8     9    1
    28     9    12    1
    29   139   141   ar
    30    47    45    1
    31   129   128    2
    32    30    29    1
    33   142   143   ar
    34    12    13    1
    35   128   127    1
    36   141   143   ar
    37   143   144    1
    38    45    46    1
    39    45    42    1
    40    41    42    1
    41    13    15    1
    42    13    14    1
    43    82    81    2
    44    42    43    1
    45   130   127    1
    46   130   131    1
    47   127   126    1
    48    81    80    1
    49   126   132    1
    50   126   118   am
    51    80    79    1
    52   119   118    2
    53   131   132    1
    54   118   117    1
    55   120   121    1
    56   120   117    1
    57    43    44    2
    58    40    38    1
    59   121   123   ar
    60   121   122   ar
    61    79    74   am
    62   117   116    1
    63    34    35    1
    64   123   125   ar
    65   122   124   ar
    66     5     2    1
    67     5     6    1
    68     3     2    1
    69     3     4    2
    70   116   110   am
    71     2     1    1
    72    38    35    1
    73    38    39    1
    74    35    36    1
    75   125   124   ar
    76   115   113    1
    77    74    75    2
    78    74    73    1
    79     6     7    1
    80   110   109    1
    81   110   111    2
    82     1     7    1
    83    77    76    1
    84   109   112    1
    85   109   108    1
    86    73    76    1
    87    73    72    1
    88   112   113    1
    89    36    37    2
    90   113   114    1
    91    48    49    1
    92    52    49    1
    93    52    53    1
    94    76    78    1
    95    55    53   ar
    96    55    57   ar
    97    49    50    1
    98    63    62    2
    99    72    62   am
   100    53    54   ar
   101    62    61    1
   102    57    58   ar
   103   106   107   ar
   104   106   104   ar
   105    64    61    1
   106    64    65    1
   107   107   105   ar
   108    54    56   ar
   109    50    51    2
   110   104   101   ar
   111    92    90   ar
   112    92    93   ar
   113    58    56   ar
   114    58    59    1
   115    61    60    1
   116    90    88   ar
   117    65    67   ar
   118    65    66   ar
   119    83    84    1
   120    67    69   ar
   121   105   103   ar
   122    86    85    2
   123    93    91   ar
   124   101   103   ar
   125   101    99   ar
   126    88    87    1
   127    88    89   ar
   128    87    84    1
   129   103   102   ar
   130    66    68   ar
   131    69    70   ar
   132    84    85    1
   133    97    96    2
   134    99    98    1
   135    99   100   ar
   136    91    89   ar
   137    98    95    1
   138    68    70   ar
   139    70    71    1
   140   102   100   ar
   141    96    95    1
   142    94    95    1
