@<TRIPOS>MOLECULE
tmp/2hobA00.pdb
 224 221 0 0 0
SMALL
GASTEIGER

@<TRIPOS>ATOM
      1  N         -2.3860  -32.1350  101.5430 N.3    24  THR24      -0.1203
      2  CA        -1.7720  -31.4550  100.4110 C.3    24  THR24       0.1994
      3  C         -0.6490  -30.5010  100.8300 C.2    24  THR24       0.2619
      4  O         -0.0830  -29.7880   99.9980 O.2    24  THR24      -0.2717
      5  CB        -2.8370  -30.6760   99.6300 C.3    24  THR24       0.1784
      6  OG1       -3.6190  -29.9160  100.5540 O.3    24  THR24      -0.2211
      7  CG2       -3.7660  -31.6390   98.8700 C.3    24  THR24       0.0376
      8  N         -0.3380  -30.4930  102.1230 N.am   25  THR25      -0.1938
      9  CA         0.7150  -29.6390  102.6680 C.3    25  THR25       0.2028
     10  C          1.9960  -30.4560  102.7950 C.2    25  THR25       0.2643
     11  O          2.0000  -31.4880  103.4530 O.2    25  THR25      -0.2714
     12  CB         0.3530  -29.1440  104.0890 C.3    25  THR25       0.1808
     13  OG1       -0.8980  -28.4470  104.0490 O.3    25  THR25      -0.2208
     14  CG2        1.4370  -28.2010  104.6380 C.3    25  THR25       0.0379
     15  N          3.0710  -29.9920  102.1630 N.am   26  THR26      -0.1936
     16  CA         4.3690  -30.6430  102.2320 C.3    26  THR26       0.2028
     17  C          5.4280  -29.6290  102.7160 C.2    26  THR26       0.2642
     18  O          5.4020  -28.4550  102.3200 O.2    26  THR26      -0.2714
     19  CB         4.8160  -31.1730  100.8570 C.3    26  THR26       0.1808
     20  OG1        4.0280  -32.3290  100.5070 O.3    26  THR26      -0.2208
     21  CG2        6.2590  -31.5710  100.8980 C.3    26  THR26       0.0379
     22  N          6.3330  -30.1000  103.5770 N.am   27  LEU27      -0.1977
     23  CA         7.4290  -29.2870  104.1050 C.3    27  LEU27       0.1596
     24  C          8.6070  -30.2080  104.4940 C.2    27  LEU27       0.2287
     25  O          8.5700  -31.4220  104.2380 O.2    27  LEU27      -0.2864
     26  CB         6.9470  -28.4000  105.2660 C.3    27  LEU27       0.0297
     27  CG         6.0430  -28.9480  106.3690 C.3    27  LEU27       0.0022
     28  CD1        6.7710  -30.0100  107.1880 C.3    27  LEU27       0.0001
     29  CD2        5.6110  -27.7870  107.2610 C.3    27  LEU27       0.0001
     30  N          2.5880  -27.1540  111.9120 N.3    41  HIS41      -0.1241
     31  CA         1.6110  -26.6180  110.9740 C.3    41  HIS41       0.1621
     32  C          1.4800  -27.4050  109.6890 C.2    41  HIS41       0.2264
     33  O          0.6590  -27.0470  108.8250 O.2    41  HIS41      -0.2867
     34  CB         1.8300  -25.1310  110.6700 C.3    41  HIS41       0.0745
     35  CG         3.0410  -24.8280  109.8450 C.ar   41  HIS41       0.0817
     36  ND1        4.1290  -24.1580  110.3580 N.ar   41  HIS41      -0.2268
     37  CD2        3.3110  -25.0340  108.5320 C.ar   41  HIS41       0.1154
     38  CE1        5.0210  -23.9630  109.4010 C.ar   41  HIS41       0.1986
     39  NE2        4.5500  -24.4860  108.2820 N.ar   41  HIS41      -0.2212
     40  N         -1.9400  -28.4170  108.9360 N.3    44  CYS44      -0.1235
     41  CA        -2.9270  -27.3950  108.6070 C.3    44  CYS44       0.1677
     42  C         -3.1450  -27.2710  107.0990 C.2    44  CYS44       0.2270
     43  O         -2.2260  -27.4690  106.3090 O.2    44  CYS44      -0.2867
     44  CB        -2.4780  -26.0130  109.1200 C.3    44  CYS44       0.0956
     45  SG        -2.3110  -25.8490  110.8950 S.3    44  CYS44      -0.0801
     46  N         -4.6920  -24.4650  104.2850 N.3    46  ALA46      -0.1245
     47  CA        -4.6860  -23.0070  104.3230 C.3    46  ALA46       0.1562
     48  C         -5.7850  -22.4020  105.2160 C.2    46  ALA46       0.2260
     49  O         -5.5790  -21.3430  105.8150 O.2    46  ALA46      -0.2867
     50  CB        -4.8020  -22.4570  102.9270 C.3    46  ALA46       0.0290
     51  N         -4.9020  -22.3060  109.0340 N.3    49  MET49      -0.1245
     52  CA        -3.8570  -21.3630  109.4280 C.3    49  MET49       0.1570
     53  C         -4.1720  -20.1050  110.2060 C.2    49  MET49       0.2261
     54  O         -3.2860  -19.6030  110.8990 O.2    49  MET49      -0.2867
     55  CB        -3.0030  -20.9970  108.2130 C.3    49  MET49       0.0387
     56  CG        -2.1670  -22.1800  107.7310 C.3    49  MET49       0.0595
     57  SD        -1.1580  -21.9330  106.2360 S.3    49  MET49      -0.1393
     58  CE        -0.2950  -23.5760  106.2510 C.3    49  MET49       0.0692
     59  N         -4.3140  -26.9020  117.3000 N.3    54  TYR54      -0.1241
     60  CA        -3.4970  -28.0440  116.9390 C.3    54  TYR54       0.1605
     61  C         -3.8270  -29.3450  117.6470 C.2    54  TYR54       0.2264
     62  O         -3.6420  -30.4390  117.0780 O.2    54  TYR54      -0.2867
     63  CB        -2.0190  -27.7080  117.1240 C.3    54  TYR54       0.0534
     64  CG        -1.5210  -26.6800  116.1370 C.ar   54  TYR54      -0.0201
     65  CD1       -1.4670  -25.3200  116.4680 C.ar   54  TYR54      -0.0009
     66  CD2       -1.1050  -27.0700  114.8620 C.ar   54  TYR54      -0.0009
     67  CE1       -0.9920  -24.3740  115.5310 C.ar   54  TYR54       0.0417
     68  CE2       -0.6420  -26.1610  113.9480 C.ar   54  TYR54       0.0417
     69  CZ        -0.5840  -24.8140  114.2740 C.ar   54  TYR54       0.1957
     70  OH        -0.1300  -23.9230  113.3260 O.3    54  TYR54      -0.2866
     71  N         14.0560  -17.1610  102.6060 N.3   140  PHE140     -0.1227
     72  CA        13.1520  -18.3150  102.5760 C.3   140  PHE140      0.1736
     73  C         11.9540  -18.0810  101.6660 C.2   140  PHE140      0.2595
     74  O         11.4120  -16.9730  101.6540 O.2   140  PHE140     -0.2718
     75  CB        12.5900  -18.5720  103.9820 C.3   140  PHE140      0.0547
     76  CG        13.6050  -19.0560  104.9840 C.ar  140  PHE140     -0.0202
     77  CD1       14.0100  -18.2410  106.0350 C.ar  140  PHE140     -0.0042
     78  CD2       14.1030  -20.3540  104.9110 C.ar  140  PHE140     -0.0042
     79  CE1       14.9020  -18.7160  107.0170 C.ar  140  PHE140     -0.0003
     80  CE2       14.9930  -20.8380  105.8960 C.ar  140  PHE140     -0.0003
     81  CZ        15.3870  -20.0080  106.9490 C.ar  140  PHE140     -0.0000
     82  N         11.5460  -19.1110  100.9200 N.am  141  LEU141     -0.1966
     83  CA        10.3530  -19.0180  100.0540 C.3   141  LEU141      0.1728
     84  C          9.3390  -20.0580  100.5320 C.2   141  LEU141      0.2616
     85  O          9.6070  -20.8200  101.4750 O.2   141  LEU141     -0.2715
     86  CB        10.7020  -19.3120   98.5910 C.3   141  LEU141      0.0311
     87  CG        11.8210  -18.4390   97.9980 C.3   141  LEU141      0.0022
     88  CD1       12.0750  -18.9030   96.5890 C.3   141  LEU141      0.0001
     89  CD2       11.4230  -16.9370   98.0340 C.3   141  LEU141      0.0001
     90  N          8.1640  -20.1010   99.8880 N.am  142  ASN142     -0.1958
     91  CA         7.1600  -21.0900  100.2920 C.3   142  ASN142      0.1819
     92  C          7.8310  -22.4590  100.2040 C.2   142  ASN142      0.2622
     93  O          8.6180  -22.6970   99.3020 O.2   142  ASN142     -0.2715
     94  CB         5.9430  -21.0790   99.3610 C.3   142  ASN142      0.1195
     95  CG         5.1490  -19.7830   99.4260 C.2   142  ASN142      0.2630
     96  OD1        5.0440  -19.1390  100.4770 O.2   142  ASN142     -0.2716
     97  ND2        4.5710  -19.3980   98.2870 N.am  142  ASN142     -0.0877
     98  N          7.5240  -23.3550  101.1330 N.am  143  GLY143     -0.1940
     99  CA         8.1220  -24.6780  101.1000 C.3   143  GLY143      0.2014
    100  C          9.4010  -24.8150  101.9170 C.2   143  GLY143      0.2640
    101  O          9.9420  -25.9090  102.0380 O.2   143  GLY143     -0.2714
    102  N          9.9000  -23.7120  102.4600 N.am  144  SER144     -0.1935
    103  CA        11.1270  -23.7710  103.2520 C.3   144  SER144      0.2055
    104  C         10.9120  -24.1400  104.7290 C.2   144  SER144      0.2643
    105  O         11.8750  -24.3810  105.4630 O.2   144  SER144     -0.2714
    106  CB        11.8720  -22.4220  103.1610 C.3   144  SER144      0.2130
    107  OG        11.0660  -21.3560  103.6250 O.3   144  SER144     -0.2179
    108  N          9.6640  -24.2060  105.1870 N.am  145  CYS145     -0.1967
    109  CA         9.4740  -24.5400  106.6160 C.3   145  CYS145      0.1712
    110  C         10.0450  -25.8970  106.9850 C.2   145  CYS145      0.2296
    111  O         10.0670  -26.8010  106.1670 O.2   145  CYS145     -0.2864
    112  CB         8.0460  -24.3990  107.0580 C.3   145  CYS145      0.0983
    113  SG         7.5650  -22.6900  107.1070 S.3   145  CYS145     -0.0798
    114  N         12.7600  -23.5220  110.9020 N.3   163  HIS163     -0.1226
    115  CA        12.0090  -22.4160  110.3490 C.3   163  HIS163      0.1752
    116  C         10.5060  -22.6680  110.3080 C.2   163  HIS163      0.2596
    117  O         10.0810  -23.7410  109.8940 O.2   163  HIS163     -0.2718
    118  CB        12.5430  -22.1290  108.9430 C.3   163  HIS163      0.0759
    119  CG        11.9100  -20.9310  108.3150 C.ar  163  HIS163      0.0818
    120  ND1       11.8250  -19.7220  108.9620 N.ar  163  HIS163     -0.2268
    121  CD2       11.2070  -20.7940  107.1710 C.ar  163  HIS163      0.1154
    122  CE1       11.0740  -18.8950  108.2610 C.ar  163  HIS163      0.1986
    123  NE2       10.6820  -19.5230  107.1690 N.ar  163  HIS163     -0.2212
    124  N          9.7060  -21.6620  110.7070 N.am  164  HIS164     -0.1961
    125  CA         8.2380  -21.7630  110.7240 C.3   164  HIS164      0.1787
    126  C          7.4950  -20.6510  109.9700 C.2   164  HIS164      0.2620
    127  O          6.4400  -20.9080  109.4000 O.2   164  HIS164     -0.2715
    128  CB         7.6700  -21.7150  112.1710 C.3   164  HIS164      0.0785
    129  CG         7.9330  -22.9440  112.9830 C.ar  164  HIS164      0.0821
    130  ND1        6.9270  -23.7820  113.4100 N.ar  164  HIS164     -0.2267
    131  CD2        9.0980  -23.4990  113.4130 C.ar  164  HIS164      0.1154
    132  CE1        7.4560  -24.8090  114.0580 C.ar  164  HIS164      0.1986
    133  NE2        8.7710  -24.6600  114.0740 N.ar  164  HIS164     -0.2212
    134  N          8.0080  -19.4210  109.9880 N.am  165  MET165     -0.1963
    135  CA         7.2520  -18.3470  109.3570 C.3   165  MET165      0.1736
    136  C          7.9980  -17.0920  109.0000 C.2   165  MET165      0.2616
    137  O          9.1260  -16.8630  109.4430 O.2   165  MET165     -0.2715
    138  CB         6.0840  -17.9500  110.2880 C.3   165  MET165      0.0427
    139  CG         6.5210  -17.6230  111.7280 C.3   165  MET165      0.0599
    140  SD         5.2320  -16.8530  112.9060 S.3   165  MET165     -0.1393
    141  CE         3.9610  -17.9360  112.6620 C.3   165  MET165      0.0692
    142  N          7.3180  -16.2520  108.2310 N.am  166  GLU166     -0.1963
    143  CA         7.8550  -14.9640  107.8210 C.3   166  GLU166      0.1733
    144  C          6.9290  -13.8660  108.3550 C.2   166  GLU166      0.2616
    145  O          5.7010  -14.0270  108.3390 O.2   166  GLU166     -0.2715
    146  CB         7.9060  -14.8660  106.3050 C.3   166  GLU166      0.0429
    147  CG         8.5870  -13.6410  105.7920 C.3   166  GLU166      0.1163
    148  CD         8.8300  -13.7390  104.2950 C.2   166  GLU166      0.3649
    149  OE1        8.0490  -13.1000  103.5490 O.co2 166  GLU166     -0.2457
    150  OE2        9.7800  -14.4510  103.8710 O.co2 166  GLU166     -0.2457
    151  N          7.5270  -12.7770  108.8310 N.am  167  LEU167     -0.1964
    152  CA         6.7730  -11.6580  109.3590 C.3   167  LEU167      0.1713
    153  C          6.6960  -10.6080  108.2570 C.2   167  LEU167      0.2458
    154  O          7.4240  -10.6840  107.2600 O.2   167  LEU167     -0.2730
    155  CB         7.4460  -11.1120  110.6350 C.3   167  LEU167      0.0310
    156  CG         7.4150  -12.1190  111.8040 C.3   167  LEU167      0.0022
    157  CD1        8.3920  -11.7350  112.9370 C.3   167  LEU167      0.0001
    158  CD2        5.9910  -12.1850  112.3190 C.3   167  LEU167      0.0001
    159  N          5.8140   -9.6160  108.4250 N.am  168  PRO168     -0.2727
    160  CA         5.6120   -8.5490  107.4440 C.3   168  PRO168      0.1402
    161  C          6.8300   -7.8080  106.9600 C.2   168  PRO168      0.2269
    162  O          6.8840   -7.4280  105.7900 O.2   168  PRO168     -0.2865
    163  CB         4.5980   -7.6330  108.1280 C.3   168  PRO168      0.0296
    164  CG         3.8520   -8.5540  108.9900 C.3   168  PRO168      0.0237
    165  CD         4.9420   -9.4120  109.5930 C.3   168  PRO168      0.0939
    166  N         12.3530  -13.5150  109.5160 N.3   172  HIS172     -0.1241
    167  CA        11.8900  -14.8680  109.8070 C.3   172  HIS172      0.1621
    168  C         11.8660  -15.2860  111.2660 C.2   172  HIS172      0.2264
    169  O         12.6680  -14.7820  112.0570 O.2   172  HIS172     -0.2867
    170  CB        12.7770  -15.7910  108.9760 C.3   172  HIS172      0.0745
    171  CG        12.7500  -15.4490  107.5240 C.ar  172  HIS172      0.0817
    172  ND1       13.7440  -14.7110  106.9080 N.ar  172  HIS172     -0.2268
    173  CD2       11.7840  -15.6340  106.5970 C.ar  172  HIS172      0.1154
    174  CE1       13.3870  -14.4600  105.6620 C.ar  172  HIS172      0.1986
    175  NE2       12.2020  -15.0060  105.4490 N.ar  172  HIS172     -0.2212
    176  N          2.5370  -19.8980  116.0290 N.3   187  ASP187     -0.1225
    177  CA         2.3860  -20.4720  114.6990 C.3   187  ASP187      0.1805
    178  C          0.9770  -20.4680  114.1520 C.2   187  ASP187      0.2598
    179  O          0.2980  -21.5070  114.0570 O.2   187  ASP187     -0.2718
    180  CB         3.0060  -21.8790  114.6340 C.3   187  ASP187      0.1424
    181  CG         2.4830  -22.8300  115.7020 C.2   187  ASP187      0.3668
    182  OD1        1.9140  -22.3870  116.7180 O.co2 187  ASP187     -0.2456
    183  OD2        2.7020  -24.0490  115.5460 O.co2 187  ASP187     -0.2456
    184  N          0.5350  -19.2660  113.8210 N.am  188  ARG188     -0.1966
    185  CA        -0.7740  -19.0530  113.2210 C.3   188  ARG188      0.1729
    186  C         -0.6930  -17.7460  112.4350 C.2   188  ARG188      0.2616
    187  O          0.0250  -16.8300  112.8240 O.2   188  ARG188     -0.2715
    188  CB        -1.8840  -19.0150  114.2850 C.3   188  ARG188      0.0348
    189  CG        -1.8170  -17.9220  115.3570 C.3   188  ARG188      0.0492
    190  CD        -2.8440  -18.2410  116.4810 C.3   188  ARG188      0.2205
    191  NE        -2.6310  -19.5960  116.9740 N.pl3 188  ARG188     -0.0865
    192  CZ        -3.5830  -20.5200  117.1070 C.cat 188  ARG188      0.5346
    193  NH1       -4.8420  -20.2440  116.7940 N.pl3 188  ARG188      0.1354
    194  NH2       -3.2630  -21.7350  117.5340 N.pl3 188  ARG188      0.1354
    195  N         -1.4160  -17.6590  111.3260 N.am  189  GLN189     -0.1963
    196  CA        -1.3540  -16.4640  110.4990 C.3   189  GLN189      0.1733
    197  C         -2.1700  -15.2570  110.9650 C.2   189  GLN189      0.2617
    198  O         -3.0580  -14.7680  110.2510 O.2   189  GLN189     -0.2715
    199  CB        -1.6990  -16.8340  109.0480 C.3   189  GLN189      0.0408
    200  CG        -0.8430  -17.9940  108.5580 C.3   189  GLN189      0.0908
    201  CD        -0.7570  -18.0970  107.0460 C.2   189  GLN189      0.2608
    202  OE1        0.3340  -18.3190  106.4850 O.2   189  GLN189     -0.2717
    203  NE2       -1.9050  -17.9470  106.3690 N.am  189  GLN189     -0.0878
    204  N         -1.8520  -14.7770  112.1640 N.am  190  THR190     -0.1937
    205  CA        -2.4960  -13.5970  112.7370 C.3   190  THR190      0.2028
    206  C         -1.5760  -12.3800  112.5890 C.2   190  THR190      0.2642
    207  O         -0.4690  -12.5010  112.0680 O.2   190  THR190     -0.2714
    208  CB        -2.7830  -13.7980  114.2210 C.3   190  THR190      0.1808
    209  OG1       -1.5850  -14.2370  114.8940 O.3   190  THR190     -0.2208
    210  CG2       -3.8950  -14.8400  114.4010 C.3   190  THR190      0.0379
    211  N         -2.0500  -11.2100  113.0080 N.am  191  ALA191     -0.1963
    212  CA        -1.2280  -10.0140  112.9370 C.3   191  ALA191      0.1728
    213  C         -0.1650  -10.1300  114.0110 C.2   191  ALA191      0.2616
    214  O         -0.4680  -10.1660  115.2060 O.2   191  ALA191     -0.2715
    215  CB        -2.0600   -8.7430  113.1840 C.3   191  ALA191      0.0334
    216  N          1.0750  -10.2020  113.5710 N.am  192  GLN192     -0.1977
    217  CA         2.2120  -10.2860  114.4630 C.3   192  GLN192      0.1601
    218  C          3.2480   -9.4040  113.8180 C.2   192  GLN192      0.2287
    219  O          3.2460   -9.2280  112.5890 O.2   192  GLN192     -0.2864
    220  CB         2.7350  -11.7180  114.5520 C.3   192  GLN192      0.0394
    221  CG         1.7650  -12.6860  115.1760 C.3   192  GLN192      0.0908
    222  CD         2.3060  -14.1100  115.1840 C.2   192  GLN192      0.2608
    223  OE1        1.8090  -15.0070  114.4790 O.2   192  GLN192     -0.2717
    224  NE2        3.3120  -14.3290  115.9760 N.am  192  GLN192     -0.0878
@<TRIPOS>BOND
     1    88    87    1
     2    87    89    1
     3    87    86    1
     4    97    95   am
     5    86    83    1
     6     7     5    1
     7    93    92    2
     8    94    95    1
     9    94    91    1
    10    95    96    2
    11     5     2    1
    12     5     6    1
    13    90    91    1
    14    90    84   am
    15     4     3    2
    16    83    84    1
    17    83    82    1
    18    92    91    1
    19    92    98   am
    20     2     3    1
    21     2     1    1
    22    20    19    1
    23    84    85    2
    24     3     8   am
    25    19    21    1
    26    19    16    1
    27    82    73   am
    28    99    98    1
    29    99   100    1
    30    74    73    2
    31    73    72    1
    32   100   101    2
    33   100   102   am
    34     8     9    1
    35    15    16    1
    36    15    10   am
    37    16    17    1
    38    18    17    2
    39   102   103    1
    40    72    71    1
    41    72    75    1
    42     9    10    1
    43     9    12    1
    44    17    22   am
    45    10    11    2
    46    50    47    1
    47   106   103    1
    48   106   107    1
    49   103   104    1
    50   149   148   ar
    51    22    23    1
    52   150   148   ar
    53    75    76    1
    54    13    12    1
    55    12    14    1
    56    23    24    1
    57    23    26    1
    58    25    24    2
    59    46    47    1
    60   148   147    1
    61    47    48    1
    62   104   108   am
    63   104   105    2
    64    78    76   ar
    65    78    80   ar
    66    76    77   ar
    67   108   109    1
    68    48    49    2
    69    26    27    1
    70   175   174   ar
    71   175   173   ar
    72   174   172   ar
    73   162   161    2
    74   147   146    1
    75    80    81   ar
    76    77    79   ar
    77   111   110    2
    78    57    58    1
    79    57    56    1
    80   146   143    1
    81    43    42    2
    82   203   201   am
    83    27    28    1
    84    27    29    1
    85   202   201    2
    86   173   171   ar
    87   109   110    1
    88   109   112    1
    89   172   171   ar
    90    81    79   ar
    91   161   160    1
    92   201   200    1
    93   112   113    1
    94    42    41    1
    95   123   121   ar
    96   123   122   ar
    97   121   119   ar
    98   154   153    2
    99   160   163    1
   100   160   159    1
   101   171   170    1
   102    56    55    1
   103   143   142    1
   104   143   144    1
   105   163   164    1
   106    55    52    1
   107   142   136   am
   108   153   159   am
   109   153   152    1
   110   122   120   ar
   111    39    37   ar
   112    39    38   ar
   113   119   118    1
   114   119   120   ar
   115   145   144    2
   116   144   151   am
   117   159   165    1
   118    37    35   ar
   119   200   199    1
   120    41    40    1
   121    41    44    1
   122    33    32    2
   123   151   152    1
   124   118   115    1
   125   170   167    1
   126   164   165    1
   127   136   135    1
   128   136   137    2
   129    51    52    1
   130   199   196    1
   131    44    45    1
   132   135   134    1
   133   135   138    1
   134   152   155    1
   135   127   126    2
   136    38    36   ar
   137    52    53    1
   138   166   167    1
   139    32    31    1
   140   167   168    1
   141    35    36   ar
   142    35    34    1
   143   117   116    2
   144   126   134   am
   145   126   125    1
   146    53    54    2
   147   198   197    2
   148   138   139    1
   149   116   115    1
   150   116   124   am
   151   115   114    1
   152   196   197    1
   153   196   195    1
   154   155   156    1
   155    34    31    1
   156   124   125    1
   157   125   128    1
   158   197   204   am
   159    31    30    1
   160   168   169    2
   161   195   186   am
   162   139   140    1
   163   156   158    1
   164   156   157    1
   165   207   206    2
   166   204   205    1
   167   128   129    1
   168   186   187    2
   169   186   185    1
   170   206   205    1
   171   206   211   am
   172   219   218    2
   173   141   140    1
   174   205   208    1
   175   212   211    1
   176   212   215    1
   177   212   213    1
   178   129   130   ar
   179   129   131   ar
   180   185   184    1
   181   185   188    1
   182    70    69    1
   183   130   132   ar
   184   131   133   ar
   185   216   213   am
   186   216   217    1
   187   218   217    1
   188   184   178   am
   189    68    69   ar
   190    68    66   ar
   191   213   214    2
   192   179   178    2
   193   132   133   ar
   194   178   177    1
   195   208   210    1
   196   208   209    1
   197    69    67   ar
   198   188   189    1
   199   217   220    1
   200   223   222    2
   201   220   221    1
   202   180   177    1
   203   180   181    1
   204   177   176    1
   205    66    64   ar
   206   221   222    1
   207   222   224   am
   208   189   190    1
   209    67    65   ar
   210   183   181   ar
   211   181   182   ar
   212    64    65   ar
   213    64    63    1
   214   190   191    1
   215   193   192    1
   216    60    63    1
   217    60    59    1
   218    60    61    1
   219   191   192    2
   220    62    61    2
   221   192   194    1
