@<TRIPOS>MOLECULE
tmp/2hocA00.pdb
 153 148 0 0 0
SMALL
GASTEIGER

@<TRIPOS>ATOM
      1  N         -3.2000    0.3480    3.6520 N.3    60  ASN60      -0.1240
      2  CA        -2.0420    1.1290    4.1160 C.3    60  ASN60       0.1653
      3  C         -0.8290    0.2540    4.3830 C.2    60  ASN60       0.2266
      4  O          0.1060    0.6850    5.0640 O.2    60  ASN60      -0.2867
      5  CB        -2.3910    1.9020    5.3910 C.3    60  ASN60       0.1155
      6  CG        -2.8690    0.9880    6.5140 C.2    60  ASN60       0.2627
      7  OD1       -2.3850   -0.1290    6.6580 O.2    60  ASN60      -0.2716
      8  ND2       -3.8190    1.4750    7.3020 N.am   60  ASN60      -0.0877
      9  N         -8.3520    0.4080    5.8120 N.3    65  ASN65      -0.1240
     10  CA        -9.1770    1.3510    6.5360 C.3    65  ASN65       0.1653
     11  C        -10.3530    1.8710    5.7010 C.2    65  ASN65       0.2266
     12  O        -10.1930    2.2350    4.5210 O.2    65  ASN65      -0.2867
     13  CB        -8.3430    2.5660    6.9690 C.3    65  ASN65       0.1155
     14  CG        -7.2920    2.2130    8.0330 C.2    65  ASN65       0.2627
     15  OD1       -6.4760    3.0500    8.3900 O.2    65  ASN65      -0.2716
     16  ND2       -7.3170    0.9850    8.5270 N.am   65  ASN65      -0.0877
     17  N        -13.8620    8.1660   12.6350 N.3    89  ILE89      -0.1231
     18  CA       -13.0320    8.6050   11.5290 C.3    89  ILE89       0.1692
     19  C        -12.7240    7.4450   10.5900 C.2    89  ILE89       0.2591
     20  O        -12.6830    7.6080    9.3600 O.2    89  ILE89      -0.2718
     21  CB       -11.7260    9.2450   12.0210 C.3    89  ILE89       0.0266
     22  CG1      -10.8290    9.5540   10.8070 C.3    89  ILE89       0.0019
     23  CG2      -11.0240    8.3270   13.0140 C.3    89  ILE89       0.0020
     24  CD1       -9.5790   10.3460   11.1740 C.3    89  ILE89       0.0001
     25  N        -12.5220    6.2580   11.1560 N.am   90  GLN90      -0.1979
     26  CA       -12.2260    5.0900   10.3290 C.3    90  GLN90       0.1601
     27  C        -12.3580    3.8060   11.1210 C.2    90  GLN90       0.2287
     28  O        -12.4280    3.8300   12.3560 O.2    90  GLN90      -0.2864
     29  CB       -10.8130    5.1890    9.7600 C.3    90  GLN90       0.0394
     30  CG        -9.7120    5.2330   10.8270 C.3    90  GLN90       0.0908
     31  CD        -9.0230    3.8900   11.0360 C.2    90  GLN90       0.2608
     32  OE1       -9.6680    2.8530   11.1690 O.2    90  GLN90      -0.2717
     33  NE2       -7.7040    3.9090   11.0750 N.am   90  GLN90      -0.0878
     34  N        -11.0310   -0.5530   10.8300 N.3    92  HIS92      -0.1241
     35  CA       -10.1780   -1.5150   10.1730 C.3    92  HIS92       0.1621
     36  C        -10.2760   -2.7860   10.9790 C.2    92  HIS92       0.2264
     37  O        -11.0130   -2.8280   11.9690 O.2    92  HIS92      -0.2867
     38  CB        -8.7350   -1.0400   10.1710 C.3    92  HIS92       0.0745
     39  CG        -8.2300   -0.6950   11.5430 C.ar   92  HIS92       0.0817
     40  ND1       -8.5230    0.4960   12.1550 N.ar   92  HIS92      -0.2268
     41  CD2       -7.5010   -1.4080   12.4240 C.ar   92  HIS92       0.1154
     42  CE1       -7.9860    0.5070   13.3610 C.ar   92  HIS92       0.1986
     43  NE2       -7.3600   -0.6340   13.5440 N.ar   92  HIS92      -0.2212
     44  N         -7.9920   -6.6310   12.2920 N.3    94  HIS94      -0.1241
     45  CA        -6.7290   -7.3040   12.5570 C.3    94  HIS94       0.1621
     46  C         -7.1390   -8.7810   12.4620 C.2    94  HIS94       0.2264
     47  O         -8.1290   -9.1750   13.0500 O.2    94  HIS94      -0.2867
     48  CB        -6.2340   -6.9970   13.9850 C.3    94  HIS94       0.0745
     49  CG        -5.8740   -5.5530   14.1820 C.ar   94  HIS94       0.0817
     50  ND1       -4.6100   -5.0720   13.9570 N.ar   94  HIS94      -0.2268
     51  CD2       -6.6350   -4.4830   14.5310 C.ar   94  HIS94       0.1154
     52  CE1       -4.5940   -3.7690   14.1700 C.ar   94  HIS94       0.1986
     53  NE2       -5.8130   -3.3880   14.5200 N.ar   94  HIS94      -0.2212
     54  N        -11.9280   -2.6710   14.7510 N.3   117  HIS117     -0.1241
     55  CA       -11.6650   -1.4220   15.4710 C.3   117  HIS117      0.1621
     56  C        -12.3080   -0.2250   14.8010 C.2   117  HIS117      0.2264
     57  O        -11.9590    0.1220   13.6440 O.2   117  HIS117     -0.2867
     58  CB       -10.1370   -1.1540   15.5840 C.3   117  HIS117      0.0745
     59  CG        -9.4310   -2.0770   16.5260 C.ar  117  HIS117      0.0817
     60  ND1       -8.0690   -2.2650   16.4990 N.ar  117  HIS117     -0.2268
     61  CD2       -9.8990   -2.8860   17.5080 C.ar  117  HIS117      0.1154
     62  CE1       -7.7230   -3.1440   17.4170 C.ar  117  HIS117      0.1986
     63  NE2       -8.8170   -3.5360   18.0550 N.ar  117  HIS117     -0.2212
     64  N        -12.4930    3.5430   15.0630 N.3   119  VAL119     -0.1245
     65  CA       -11.7720    4.6400   15.6920 C.3   119  VAL119      0.1561
     66  C        -12.5260    5.9590   15.7330 C.2   119  VAL119      0.2260
     67  O        -13.0540    6.4090   14.6990 O.2   119  VAL119     -0.2867
     68  CB       -10.4230    4.8820   14.9710 C.3   119  VAL119      0.0252
     69  CG1       -9.5810    5.8740   15.7820 C.3   119  VAL119      0.0019
     70  CG2       -9.6850    3.5830   14.7910 C.3   119  VAL119      0.0019
     71  N         -8.5030   15.1900   14.5850 N.3   128  PHE128     -0.1241
     72  CA        -7.8690   13.9380   14.9610 C.3   128  PHE128      0.1605
     73  C         -6.4010   14.1680   15.3440 C.2   128  PHE128      0.2264
     74  O         -5.8930   13.5940   16.3300 O.2   128  PHE128     -0.2867
     75  CB        -7.9710   12.9280   13.8020 C.3   128  PHE128      0.0534
     76  CG        -7.2590   11.6400   14.0610 C.ar  128  PHE128     -0.0203
     77  CD1       -5.9000   11.5080   13.7910 C.ar  128  PHE128     -0.0042
     78  CD2       -7.9410   10.5550   14.6170 C.ar  128  PHE128     -0.0042
     79  CE1       -5.2330   10.3080   14.0690 C.ar  128  PHE128     -0.0003
     80  CE2       -7.2830    9.3570   14.8980 C.ar  128  PHE128     -0.0003
     81  CZ        -5.9240    9.2340   14.6270 C.ar  128  PHE128     -0.0000
     82  N         -4.7000   13.1690   19.2460 N.3   132  VAL132     -0.1245
     83  CA        -3.6640   12.1890   19.5850 C.3   132  VAL132      0.1561
     84  C         -2.5050   12.7930   20.3620 C.2   132  VAL132      0.2260
     85  O         -1.4050   12.2680   20.3520 O.2   132  VAL132     -0.2867
     86  CB        -3.1210   11.4570   18.3460 C.3   132  VAL132      0.0252
     87  CG1       -4.2300   10.6320   17.7240 C.3   132  VAL132      0.0019
     88  CG2       -2.5630   12.4610   17.3310 C.3   132  VAL132      0.0019
     89  N        -11.6400    3.8170   20.9590 N.3   140  VAL140     -0.1245
     90  CA       -11.7490    2.7870   19.9260 C.3   140  VAL140      0.1561
     91  C        -12.7260    1.7160   20.3830 C.2   140  VAL140      0.2260
     92  O        -12.6160    1.1820   21.5020 O.2   140  VAL140     -0.2867
     93  CB       -10.3980    2.1220   19.6170 C.3   140  VAL140      0.0252
     94  CG1      -10.5830    1.1080   18.4740 C.3   140  VAL140      0.0019
     95  CG2       -9.3600    3.1820   19.2320 C.3   140  VAL140      0.0019
     96  N         -2.8400    2.9500   21.0170 N.3   195  LEU195     -0.1231
     97  CA        -3.0240    2.4480   19.6580 C.3   195  LEU195      0.1693
     98  C         -2.2710    1.1290   19.7030 C.2   195  LEU195      0.2593
     99  O         -1.3180    1.0050   20.4470 O.2   195  LEU195     -0.2718
    100  CB        -2.3470    3.3790   18.6700 C.3   195  LEU195      0.0284
    101  CG        -2.8180    4.8410   18.6660 C.3   195  LEU195      0.0019
    102  CD1       -1.9090    5.6260   17.7540 C.3   195  LEU195      0.0001
    103  CD2       -4.2680    4.9160   18.2130 C.3   195  LEU195      0.0001
    104  N         -2.6940    0.1390   18.9160 N.am  196  THR196     -0.1939
    105  CA        -2.0110   -1.1510   18.9280 C.3   196  THR196      0.2028
    106  C         -0.9310   -1.2380   17.8490 C.2   196  THR196      0.2643
    107  O         -0.3090   -2.2840   17.6800 O.2   196  THR196     -0.2714
    108  CB        -2.9720   -2.3120   18.7410 C.3   196  THR196      0.1808
    109  OG1       -3.6350   -2.1890   17.4590 O.3   196  THR196     -0.2208
    110  CG2       -4.0160   -2.3250   19.8750 C.3   196  THR196      0.0379
    111  N         -0.7290   -0.1470   17.1220 N.am  197  THR197     -0.1937
    112  CA         0.3140   -0.1040   16.0940 C.3   197  THR197      0.2013
    113  C          1.0890    1.1900   16.3030 C.2   197  THR197      0.2484
    114  O          0.5750    2.1470   16.8820 O.2   197  THR197     -0.2729
    115  CB        -0.2740   -0.0660   14.6540 C.3   197  THR197      0.1807
    116  OG1       -0.9160    1.1940   14.4450 O.3   197  THR197     -0.2208
    117  CG2       -1.2920   -1.1990   14.4450 C.3   197  THR197      0.0379
    118  N          2.3420    1.2380   15.8390 N.am  198  PRO198     -0.2715
    119  CA         3.1270    2.4640   15.9910 C.3   198  PRO198      0.1521
    120  C          2.3090    3.6110   15.4330 C.2   198  PRO198      0.2440
    121  O          1.6160    3.4360   14.4480 O.2   198  PRO198     -0.2731
    122  CB         4.3640    2.1700   15.1630 C.3   198  PRO198      0.0310
    123  CG         4.5650    0.6960   15.4010 C.3   198  PRO198      0.0237
    124  CD         3.1470    0.1640   15.2180 C.3   198  PRO198      0.0939
    125  N          2.4270    4.8130   16.0170 N.am  199  PRO199     -0.2727
    126  CA         3.2870    5.2050   17.1350 C.3   199  PRO199      0.1402
    127  C          2.8830    4.7300   18.5540 C.2   199  PRO199      0.2269
    128  O          3.4830    5.1510   19.5200 O.2   199  PRO199     -0.2865
    129  CB         3.3260    6.7220   17.0220 C.3   199  PRO199      0.0296
    130  CG         1.9420    7.0320   16.5040 C.3   199  PRO199      0.0237
    131  CD         1.7530    5.9950   15.4420 C.3   199  PRO199      0.0939
    132  N          0.5730    5.5000   20.5360 N.3   201  LEU201     -0.1245
    133  CA         0.2350    6.5990   21.4350 C.3   201  LEU201      0.1561
    134  C         -0.7880    6.1900   22.5050 C.2   201  LEU201      0.2260
    135  O         -1.8250    5.5930   22.2000 O.2   201  LEU201     -0.2867
    136  CB        -0.3060    7.7800   20.5950 C.3   201  LEU201      0.0270
    137  CG         0.6740    8.2480   19.5060 C.3   201  LEU201      0.0019
    138  CD1        0.0620    9.3900   18.6920 C.3   201  LEU201      0.0001
    139  CD2        1.9920    8.6870   20.1350 C.3   201  LEU201      0.0001
    140  N        -10.3260    2.3550   25.6220 N.3   206  TRP206     -0.1241
    141  CA       -10.8020    1.1960   24.8830 C.3   206  TRP206      0.1605
    142  C        -12.1240    0.7170   25.3850 C.2   206  TRP206      0.2264
    143  O        -12.3850    0.6820   26.6000 O.2   206  TRP206     -0.2867
    144  CB        -9.7750    0.0290   24.9600 C.3   206  TRP206      0.0550
    145  CG        -8.6880    0.1360   23.9460 C.ar  206  TRP206      0.0003
    146  CD1       -7.4680    0.7420   24.0970 C.ar  206  TRP206      0.0946
    147  CD2       -8.7230   -0.3320   22.5820 C.ar  206  TRP206      0.0152
    148  NE1       -6.7640    0.6820   22.9410 N.ar  206  TRP206     -0.2442
    149  CE2       -7.5030    0.0290   21.9850 C.ar  206  TRP206      0.0810
    150  CE3       -9.6910   -1.0180   21.8110 C.ar  206  TRP206      0.0012
    151  CZ2       -7.1950   -0.2720   20.6520 C.ar  206  TRP206      0.0191
    152  CZ3       -9.3900   -1.3160   20.4870 C.ar  206  TRP206      0.0001
    153  CH2       -8.1540   -0.9510   19.9170 C.ar  206  TRP206      0.0015
@<TRIPOS>BOND
     1     1     2    1
     2     2     3    1
     3     2     5    1
     4     3     4    2
     5    12    11    2
     6     5     6    1
     7    11    10    1
     8     9    10    1
     9     6     7    2
    10     6     8   am
    11    10    13    1
    12    13    14    1
    13    14    15    2
    14    14    16   am
    15    20    19    2
    16    29    26    1
    17    29    30    1
    18    38    35    1
    19    38    39    1
    20    35    34    1
    21    35    36    1
    22    26    27    1
    23    26    25    1
    24    19    25   am
    25    19    18    1
    26    22    24    1
    27    22    21    1
    28    30    31    1
    29    36    37    2
    30    31    33   am
    31    31    32    2
    32    27    28    2
    33    18    21    1
    34    18    17    1
    35    39    40   ar
    36    39    41   ar
    37    21    23    1
    38    40    42   ar
    39    44    45    1
    40    41    43   ar
    41    46    45    1
    42    46    47    2
    43    45    48    1
    44    42    43   ar
    45    57    56    2
    46    77    76   ar
    47    77    79   ar
    48    75    76    1
    49    75    72    1
    50    50    52   ar
    51    50    49   ar
    52    48    49    1
    53    76    78   ar
    54    79    81   ar
    55    52    53   ar
    56    49    51   ar
    57   116   115    1
    58   117   115    1
    59   121   120    2
    60    53    51   ar
    61    71    72    1
    62    78    80   ar
    63    81    80   ar
    64   115   112    1
    65    67    66    2
    66    54    55    1
    67    70    68    1
    68    56    55    1
    69    72    73    1
    70    68    65    1
    71    68    69    1
    72    64    65    1
    73   122   123    1
    74   122   119    1
    75   124   123    1
    76   124   118    1
    77    73    74    2
    78   120   119    1
    79   120   125   am
    80   131   125    1
    81   131   130    1
    82    55    58    1
    83    58    59    1
    84    65    66    1
    85   118   119    1
    86   118   113   am
    87   125   126    1
    88   112   113    1
    89   112   111    1
    90   113   114    2
    91    60    59   ar
    92    60    62   ar
    93   130   129    1
    94    59    61   ar
    95   129   126    1
    96   111   106   am
    97   126   127    1
    98    88    86    1
    99    62    63   ar
   100   109   108    1
   101    61    63   ar
   102   107   106    2
   103    87    86    1
   104   102   101    1
   105   106   105    1
   106   103   101    1
   107    86    83    1
   108    94    93    1
   109   127   128    2
   110   101   100    1
   111   100    97    1
   112   138   137    1
   113   108   105    1
   114   108   110    1
   115   104   105    1
   116   104    98   am
   117    95    93    1
   118    82    83    1
   119   137   139    1
   120   137   136    1
   121    83    84    1
   122    93    90    1
   123    97    98    1
   124    97    96    1
   125    98    99    2
   126   153   152   ar
   127   153   151   ar
   128    90    91    1
   129    90    89    1
   130    85    84    2
   131    91    92    2
   132   152   150   ar
   133   132   133    1
   134   136   133    1
   135   151   149   ar
   136   133   134    1
   137   150   147   ar
   138   149   147   ar
   139   149   148   ar
   140   135   134    2
   141   147   145   ar
   142   148   146   ar
   143   145   146   ar
   144   145   144    1
   145   141   144    1
   146   141   142    1
   147   141   140    1
   148   142   143    2
