@<TRIPOS>MOLECULE
tmp/2hocA01.pdb
 89 88 0 0 0
SMALL
GASTEIGER

@<TRIPOS>ATOM
      1  N         12.1190    1.9900   17.9170 N.3    17  ASP17      -0.1225
      2  CA        11.7720    3.2750   17.3200 C.3    17  ASP17       0.1805
      3  C         10.6510    3.9580   18.0780 C.2    17  ASP17       0.2598
      4  O         10.5170    5.1720   18.0290 O.2    17  ASP17      -0.2718
      5  CB        11.3520    3.0950   15.8570 C.3    17  ASP17       0.1424
      6  CG        12.5600    2.9580   14.9210 C.2    17  ASP17       0.3668
      7  OD1       13.3370    3.9140   14.8240 O.co2  17  ASP17      -0.2456
      8  OD2       12.7250    1.8970   14.2990 O.co2  17  ASP17      -0.2456
      9  N          9.8540    3.1590   18.7930 N.am   18  PHE18      -0.1963
     10  CA         8.7190    3.6640   19.5560 C.3    18  PHE18       0.1756
     11  C          8.8230    3.1980   21.0080 C.2    18  PHE18       0.2461
     12  O          8.2090    2.2110   21.4090 O.2    18  PHE18      -0.2730
     13  CB         7.4380    3.1500   18.9070 C.3    18  PHE18       0.0574
     14  CG         7.3610    3.4430   17.4390 C.ar   18  PHE18      -0.0200
     15  CD1        7.0040    4.7160   16.9870 C.ar   18  PHE18      -0.0042
     16  CD2        7.6940    2.4690   16.5060 C.ar   18  PHE18      -0.0042
     17  CE1        6.9910    5.0070   15.6190 C.ar   18  PHE18      -0.0003
     18  CE2        7.6790    2.7570   15.1350 C.ar   18  PHE18      -0.0003
     19  CZ         7.3310    4.0300   14.6970 C.ar   18  PHE18      -0.0000
     20  N          9.6230    3.9210   21.8270 N.am   19  PRO19      -0.2716
     21  CA         9.8780    3.6480   23.2290 C.3    19  PRO19       0.1536
     22  C          8.6410    3.3570   24.0800 C.2    19  PRO19       0.2598
     23  O          8.6710    2.4990   24.9630 O.2    19  PRO19      -0.2715
     24  CB        10.5980    4.9200   23.6950 C.3    19  PRO19       0.0310
     25  CG        11.3460    5.3150   22.4870 C.3    19  PRO19       0.0237
     26  CD        10.3230    5.1460   21.3990 C.3    19  PRO19       0.0939
     27  N          7.5540    4.0700   23.7940 N.am   20  ILE20      -0.1978
     28  CA         6.3070    3.8990   24.5470 C.3    20  ILE20       0.1596
     29  C          5.7810    2.4740   24.4560 C.2    20  ILE20       0.2287
     30  O          4.8460    2.1190   25.1680 O.2    20  ILE20      -0.2864
     31  CB         5.2230    4.8930   24.0400 C.3    20  ILE20       0.0276
     32  CG1        4.0810    5.0120   25.0550 C.3    20  ILE20       0.0022
     33  CG2        4.6250    4.4070   22.7170 C.3    20  ILE20       0.0022
     34  CD1        4.4980    5.5440   26.4050 C.3    20  ILE20       0.0001
     35  N         -4.7000   13.1690   19.2460 N.3   132  VAL132     -0.1231
     36  CA        -3.6640   12.1890   19.5850 C.3   132  VAL132      0.1692
     37  C         -2.5050   12.7930   20.3620 C.2   132  VAL132      0.2592
     38  O         -1.4050   12.2680   20.3520 O.2   132  VAL132     -0.2718
     39  CB        -3.1210   11.4570   18.3460 C.3   132  VAL132      0.0266
     40  CG1       -4.2300   10.6320   17.7240 C.3   132  VAL132      0.0020
     41  CG2       -2.5630   12.4610   17.3310 C.3   132  VAL132      0.0020
     42  N         -2.7690   13.9000   21.0290 N.am  133  GLN133     -0.1966
     43  CA        -1.7860   14.5640   21.8760 C.3   133  GLN133      0.1733
     44  C         -2.4460   14.7010   23.2430 C.2   133  GLN133      0.2616
     45  O         -1.9670   15.4310   24.1120 O.2   133  GLN133     -0.2715
     46  CB        -1.4430   15.9450   21.3120 C.3   133  GLN133      0.0408
     47  CG        -0.9100   15.8770   19.8710 C.3   133  GLN133      0.0908
     48  CD        -0.4960   17.2310   19.3240 C.2   133  GLN133      0.2608
     49  OE1       -0.1050   17.3400   18.1620 O.2   133  GLN133     -0.2717
     50  NE2       -0.5730   18.2640   20.1590 N.am  133  GLN133     -0.0878
     51  N         -3.5530   13.9710   23.4200 N.am  134  GLN134     -0.1977
     52  CA        -4.3120   14.0180   24.6750 C.3   134  GLN134      0.1601
     53  C         -4.5300   12.6390   25.2790 C.2   134  GLN134      0.2287
     54  O         -4.7340   11.6380   24.5510 O.2   134  GLN134     -0.2864
     55  CB        -5.6730   14.6720   24.4150 C.3   134  GLN134      0.0394
     56  CG        -5.6230   15.8190   23.4130 C.3   134  GLN134      0.0908
     57  CD        -4.8240   17.0120   23.9130 C.2   134  GLN134      0.2608
     58  OE1       -4.3160   17.8020   23.1050 O.2   134  GLN134     -0.2717
     59  NE2       -4.7220   17.1680   25.2310 N.am  134  GLN134     -0.0878
     60  N          2.4270    4.8130   16.0170 N.3   199  PRO199     -0.2116
     61  CA         3.2870    5.2050   17.1350 C.3   199  PRO199      0.1372
     62  C          2.8830    4.7300   18.5540 C.2   199  PRO199      0.2244
     63  O          3.4830    5.1510   19.5200 O.2   199  PRO199     -0.2868
     64  CB         3.3260    6.7220   17.0220 C.3   199  PRO199      0.0268
     65  CG         1.9420    7.0320   16.5040 C.3   199  PRO199      0.0207
     66  CD         1.7530    5.9950   15.4420 C.3   199  PRO199      0.0892
     67  N          0.5730    5.5000   20.5360 N.3   201  LEU201     -0.1231
     68  CA         0.2350    6.5990   21.4350 C.3   201  LEU201      0.1693
     69  C         -0.7880    6.1900   22.5050 C.2   201  LEU201      0.2592
     70  O         -1.8250    5.5930   22.2000 O.2   201  LEU201     -0.2718
     71  CB        -0.3060    7.7800   20.5950 C.3   201  LEU201      0.0284
     72  CG         0.6740    8.2480   19.5060 C.3   201  LEU201      0.0019
     73  CD1        0.0620    9.3900   18.6920 C.3   201  LEU201      0.0001
     74  CD2        1.9920    8.6870   20.1350 C.3   201  LEU201      0.0001
     75  N         -0.5040    6.5310   23.7590 N.am  202  GLU202     -0.1966
     76  CA        -1.4030    6.1690   24.8520 C.3   202  GLU202      0.1733
     77  C         -2.4830    7.2210   25.0510 C.2   202  GLU202      0.2616
     78  O         -2.5410    7.8880   26.0910 O.2   202  GLU202     -0.2715
     79  CB        -0.5860    5.9560   26.1530 C.3   202  GLU202      0.0429
     80  CG         0.5930    4.9880   26.0000 C.3   202  GLU202      0.1163
     81  CD         1.2230    4.5790   27.3390 C.2   202  GLU202      0.3649
     82  OE1        1.3320    5.4240   28.2450 O.co2 202  GLU202     -0.2457
     83  OE2        1.6320    3.3940   27.4800 O.co2 202  GLU202     -0.2457
     84  N         -3.3750    7.3460   24.0560 N.am  203  CYS203     -0.1968
     85  CA        -4.4510    8.3290   24.0820 C.3   203  CYS203      0.1712
     86  C         -5.8320    7.6740   23.9510 C.2   203  CYS203      0.2296
     87  O         -6.8100    8.3430   23.6780 O.2   203  CYS203     -0.2864
     88  CB        -4.3020    9.2870   22.9050 C.3   203  CYS203      0.0983
     89  SG        -2.5860    9.7960   22.5430 S.3   203  CYS203     -0.0798
@<TRIPOS>BOND
     1     8     6   ar
     2    19    18   ar
     3    19    17   ar
     4     7     6   ar
     5     6     5    1
     6    18    16   ar
     7    66    60    1
     8    66    65    1
     9    17    15   ar
    10     5     2    1
    11    60    61    1
    12    65    64    1
    13    16    14   ar
    14    15    14   ar
    15    64    61    1
    16    61    62    1
    17     2     1    1
    18     2     3    1
    19    41    39    1
    20    14    13    1
    21    40    39    1
    22     4     3    2
    23     3     9   am
    24    49    48    2
    25    39    36    1
    26    62    63    2
    27    73    72    1
    28     9    10    1
    29    13    10    1
    30    35    36    1
    31    48    47    1
    32    48    50   am
    33    72    74    1
    34    72    71    1
    35    10    11    1
    36    36    37    1
    37    47    46    1
    38    38    37    2
    39    37    42   am
    40    67    68    1
    41    71    68    1
    42    11    12    2
    43    11    20   am
    44    42    43    1
    45    46    43    1
    46    26    20    1
    47    26    25    1
    48    68    69    1
    49    20    21    1
    50    43    44    1
    51    70    69    2
    52    25    24    1
    53    69    75   am
    54    89    88    1
    55    33    31    1
    56    88    85    1
    57    58    57    2
    58    21    24    1
    59    21    22    1
    60    44    51   am
    61    44    45    2
    62    56    57    1
    63    56    55    1
    64    51    52    1
    65    87    86    2
    66    75    76    1
    67    27    22   am
    68    27    28    1
    69    57    59   am
    70    86    85    1
    71    31    28    1
    72    31    32    1
    73    84    85    1
    74    84    77   am
    75    22    23    2
    76    55    52    1
    77    29    28    1
    78    29    30    2
    79    54    53    2
    80    52    53    1
    81    76    77    1
    82    76    79    1
    83    77    78    2
    84    32    34    1
    85    80    79    1
    86    80    81    1
    87    81    83   ar
    88    81    82   ar
