@<TRIPOS>MOLECULE
tmp/2hogA00.pdb
 184 175 0 0 0
SMALL
GASTEIGER

@<TRIPOS>ATOM
      1  N         18.0110   -6.4200   -0.0400 N.3    12  GLN12      -0.1231
      2  CA        18.7320   -7.2220    0.9440 C.3    12  GLN12       0.1698
      3  C         18.0530   -7.2830    2.3020 C.2    12  GLN12       0.2593
      4  O         17.2760   -6.4020    2.6720 O.2    12  GLN12      -0.2718
      5  CB        20.1570   -6.6970    1.1320 C.3    12  GLN12       0.0381
      6  CG        20.2320   -5.3300    1.7810 C.3    12  GLN12       0.0905
      7  CD        21.6480   -4.9420    2.1580 C.2    12  GLN12       0.2608
      8  OE1       21.9040   -3.8080    2.5650 O.2    12  GLN12      -0.2717
      9  NE2       22.5750   -5.8830    2.0300 N.am   12  GLN12      -0.0878
     10  N         18.3680   -8.3360    3.0450 N.am   13  THR13      -0.1939
     11  CA        17.8070   -8.5340    4.3690 C.3    13  THR13       0.2028
     12  C         18.5700   -7.6700    5.3660 C.2    13  THR13       0.2642
     13  O         19.7900   -7.7700    5.4880 O.2    13  THR13      -0.2714
     14  CB        17.9010  -10.0110    4.7890 C.3    13  THR13       0.1808
     15  OG1       19.2730  -10.4220    4.7770 O.3    13  THR13      -0.2208
     16  CG2       17.1130  -10.8880    3.8220 C.3    13  THR13       0.0379
     17  N         17.8420   -6.8080    6.0640 N.am   14  LEU14      -0.1963
     18  CA        18.4440   -5.9220    7.0460 C.3    14  LEU14       0.1728
     19  C         18.5230   -6.6000    8.4090 C.2    14  LEU14       0.2616
     20  O         19.3870   -6.2810    9.2270 O.2    14  LEU14      -0.2715
     21  CB        17.6270   -4.6320    7.1440 C.3    14  LEU14       0.0311
     22  CG        17.5790   -3.8360    5.8390 C.3    14  LEU14       0.0022
     23  CD1       16.6590   -2.6390    5.9860 C.3    14  LEU14       0.0001
     24  CD2       18.9890   -3.3970    5.4710 C.3    14  LEU14       0.0001
     25  N         17.6170   -7.5430    8.6410 N.am   15  GLY15      -0.1955
     26  CA        17.5960   -8.2550    9.9030 C.3    15  GLY15       0.1869
     27  C         16.5220   -9.3220    9.9280 C.2    15  GLY15       0.2309
     28  O         15.4950   -9.1990    9.2610 O.2    15  GLY15      -0.2863
     29  N          9.8580  -12.9870   14.5080 N.3    19  TYR19      -0.1241
     30  CA         8.6980  -12.3080   13.9330 C.3    19  TYR19       0.1605
     31  C          8.7830  -12.1150   12.4170 C.2    19  TYR19       0.2264
     32  O          7.9470  -11.4300   11.8090 O.2    19  TYR19      -0.2867
     33  CB         8.5360  -10.9470   14.6100 C.3    19  TYR19       0.0534
     34  CG         9.8160  -10.1260   14.6500 C.ar   19  TYR19      -0.0201
     35  CD1       10.2840   -9.5800   13.4690 C.ar   19  TYR19      -0.0009
     36  CD2       10.4980   -9.9120   15.8640 C.ar   19  TYR19      -0.0009
     37  CE1       11.3980   -8.8070   13.4590 C.ar   19  TYR19       0.0417
     38  CE2       11.6360   -9.1340   15.8520 C.ar   19  TYR19       0.0417
     39  CZ        12.0460   -8.6000   14.6450 C.ar   19  TYR19       0.1957
     40  OH        13.1480   -7.8000   14.5540 O.3    19  TYR19      -0.2866
     41  N         13.2570   -8.2530    8.0010 N.3    22  VAL22      -0.1245
     42  CA        13.1620   -6.8660    7.5760 C.3    22  VAL22       0.1561
     43  C         14.0950   -6.7180    6.3860 C.2    22  VAL22       0.2260
     44  O         15.2700   -7.0730    6.4640 O.2    22  VAL22      -0.2867
     45  CB        13.6090   -5.8910    8.6880 C.3    22  VAL22       0.0252
     46  CG1       13.6370   -4.4730    8.1510 C.3    22  VAL22       0.0019
     47  CG2       12.6600   -5.9810    9.8730 C.3    22  VAL22       0.0019
     48  N         12.3380    0.4400    4.5070 N.3    35  ALA35      -0.1245
     49  CA        12.5360   -0.8550    5.1340 C.3    35  ALA35       0.1562
     50  C         11.1800   -1.5440    5.1350 C.2    35  ALA35       0.2260
     51  O         10.1790   -0.9580    5.5450 O.2    35  ALA35      -0.2867
     52  CB        13.0460   -0.6810    6.5610 C.3    35  ALA35       0.0290
     53  N          9.0650   -4.6210    6.5990 N.3    37  LYS37      -0.1245
     54  CA         8.9920   -5.6720    7.6020 C.3    37  LYS37       0.1561
     55  C          7.9790   -6.6910    7.1010 C.2    37  LYS37       0.2260
     56  O          6.8340   -6.3460    6.8030 O.2    37  LYS37      -0.2867
     57  CB         8.5480   -5.0890    8.9490 C.3    37  LYS37       0.0271
     58  CG         8.6640   -6.0540   10.1180 C.3    37  LYS37       0.0035
     59  CD         8.4150   -5.3490   11.4440 C.3    37  LYS37       0.0206
     60  CE         8.7650   -6.2410   12.6220 C.3    37  LYS37       0.1093
     61  NZ         8.6440   -5.5240   13.9260 N.3    37  LYS37      -0.1314
     62  N          0.7380   -3.6080   16.7790 N.3    47  GLU47      -0.1245
     63  CA         1.9520   -2.9220   16.3590 C.3    47  GLU47       0.1567
     64  C          1.6250   -1.8950   15.2820 C.2    47  GLU47       0.2260
     65  O          2.1380   -0.7750   15.2990 O.2    47  GLU47      -0.2867
     66  CB         2.9680   -3.9230   15.8150 C.3    47  GLU47       0.0388
     67  CG         4.3550   -3.3350   15.6190 C.3    47  GLU47       0.1160
     68  CD         5.3660   -4.3630   15.1510 C.2    47  GLU47       0.3649
     69  OE1        5.2820   -5.5260   15.5960 O.co2  47  GLU47      -0.2457
     70  OE2        6.2530   -4.0040   14.3510 O.co2  47  GLU47      -0.2457
     71  N          1.9920    2.1350   15.5220 N.3    51  ASN51      -0.1240
     72  CA         2.8010    2.8150   14.5120 C.3    51  ASN51       0.1653
     73  C          2.0380    3.9320   13.8050 C.2    51  ASN51       0.2266
     74  O          2.6120    4.9680   13.4720 O.2    51  ASN51      -0.2867
     75  CB         3.3060    1.8100   13.4700 C.3    51  ASN51       0.1155
     76  CG         4.6930    1.2720   13.7900 C.2    51  ASN51       0.2627
     77  OD1        5.6940    1.9690   13.6270 O.2    51  ASN51      -0.2716
     78  ND2        4.7560    0.0270   14.2470 N.am   51  ASN51      -0.0877
     79  N         11.1810    5.9020   14.3320 N.3    60  VAL60      -0.1245
     80  CA        11.1250    5.3690   12.9760 C.3    60  VAL60       0.1561
     81  C          9.7360    5.5790   12.3800 C.2    60  VAL60       0.2260
     82  O          8.7300    5.1600   12.9540 O.2    60  VAL60      -0.2867
     83  CB        11.4780    3.8650   12.9490 C.3    60  VAL60       0.0252
     84  CG1       11.3250    3.3190   11.5330 C.3    60  VAL60       0.0019
     85  CG2       12.9110    3.6600   13.4310 C.3    60  VAL60       0.0019
     86  N          8.3560    0.8200    6.4630 N.3    76  LEU76      -0.1231
     87  CA         8.9530    1.6830    7.4670 C.3    76  LEU76       0.1693
     88  C         10.1380    2.4840    6.9560 C.2    76  LEU76       0.2592
     89  O         10.7290    2.1680    5.9210 O.2    76  LEU76      -0.2718
     90  CB         9.4050    0.8160    8.6380 C.3    76  LEU76       0.0284
     91  CG         8.3250   -0.1210    9.1830 C.3    76  LEU76       0.0019
     92  CD1        8.9680   -1.3590    9.7780 C.3    76  LEU76       0.0001
     93  CD2        7.4820    0.6160   10.2100 C.3    76  LEU76       0.0001
     94  N         10.4880    3.5200    7.7090 N.am   77  GLU77      -0.1966
     95  CA        11.6100    4.3780    7.3670 C.3    77  GLU77       0.1733
     96  C         12.9100    3.5860    7.3940 C.2    77  GLU77       0.2616
     97  O         13.1820    2.8540    8.3470 O.2    77  GLU77      -0.2715
     98  CB        11.6960    5.5320    8.3620 C.3    77  GLU77       0.0429
     99  CG        12.9150    6.4220    8.1990 C.3    77  GLU77       0.1163
    100  CD        12.9950    7.4770    9.2850 C.2    77  GLU77       0.3649
    101  OE1       13.9180    8.3180    9.2360 O.co2  77  GLU77      -0.2457
    102  OE2       12.1340    7.4580   10.1900 O.co2  77  GLU77      -0.2457
    103  N         13.7070    3.7210    6.3420 N.am   78  TYR78      -0.1960
    104  CA        14.9850    3.0310    6.2840 C.3    78  TYR78       0.1771
    105  C         16.0500    3.9140    6.9260 C.2    78  TYR78       0.2620
    106  O         16.2510    5.0560    6.5170 O.2    78  TYR78      -0.2715
    107  CB        15.3770    2.7290    4.8330 C.3    78  TYR78       0.0574
    108  CG        16.7950    2.2170    4.6830 C.ar   78  TYR78      -0.0198
    109  CD1       17.2030    1.0460    5.3060 C.ar   78  TYR78      -0.0009
    110  CD2       17.7250    2.9100    3.9140 C.ar   78  TYR78      -0.0009
    111  CE1       18.4970    0.5770    5.1690 C.ar   78  TYR78       0.0417
    112  CE2       19.0180    2.4510    3.7700 C.ar   78  TYR78       0.0417
    113  CZ        19.4010    1.2840    4.4000 C.ar   78  TYR78       0.1957
    114  OH        20.6930    0.8260    4.2640 O.3    78  TYR78      -0.2866
    115  N         16.7190    3.3810    7.9410 N.am   79  CYS79      -0.1954
    116  CA        17.7710    4.1110    8.6380 C.3    79  CYS79       0.1843
    117  C         19.0990    3.5130    8.1860 C.2    79  CYS79       0.2626
    118  O         19.5230    2.4720    8.6810 O.2    79  CYS79      -0.2714
    119  CB        17.5860    3.9700   10.1540 C.3    79  CYS79       0.0997
    120  SG        15.9630    4.5590   10.7450 S.3    79  CYS79      -0.0797
    121  N         19.7430    4.1790    7.2320 N.am   80  SER80      -0.1936
    122  CA        21.0020    3.7100    6.6570 C.3    80  SER80       0.2055
    123  C         22.1760    3.5410    7.6170 C.2    80  SER80       0.2644
    124  O         23.1300    2.8360    7.2990 O.2    80  SER80      -0.2714
    125  CB        21.4230    4.6310    5.5030 C.3    80  SER80       0.2130
    126  OG        21.6320    5.9640    5.9440 O.3    80  SER80      -0.2179
    127  N         22.1050    4.1720    8.7870 N.am   81  GLY81      -0.1939
    128  CA        23.1930    4.0690    9.7490 C.3    81  GLY81       0.2014
    129  C         23.2240    2.7850   10.5600 C.2    81  GLY81       0.2639
    130  O         24.2060    2.5030   11.2410 O.2    81  GLY81      -0.2714
    131  N         22.1560    2.0030   10.4960 N.am   82  GLY82      -0.1939
    132  CA        22.1180    0.7580   11.2400 C.3    82  GLY82       0.2014
    133  C         21.8250    0.9370   12.7200 C.2    82  GLY82       0.2638
    134  O         21.3550    1.9870   13.1440 O.2    82  GLY82      -0.2714
    135  N         22.1260   -0.0960   13.4990 N.am   83  GLU83      -0.1977
    136  CA        21.8910   -0.1090   14.9400 C.3    83  GLU83       0.1602
    137  C         22.9370    0.6180   15.7760 C.2    83  GLU83       0.2287
    138  O         24.1250    0.5920   15.4710 O.2    83  GLU83      -0.2864
    139  CB        21.8070   -1.5540   15.4400 C.3    83  GLU83       0.0415
    140  CG        20.6910   -2.3760   14.8210 C.3    83  GLU83       0.1163
    141  CD        20.6810   -3.8100   15.3170 C.2    83  GLU83       0.3649
    142  OE1       19.8370   -4.5960   14.8350 O.co2  83  GLU83      -0.2457
    143  OE2       21.5120   -4.1490   16.1900 O.co2  83  GLU83      -0.2457
    144  N         25.9090   -1.3730   17.0330 N.3    86  ASP86      -0.1239
    145  CA        27.1700   -1.4950   16.3060 C.3    86  ASP86       0.1674
    146  C         28.1210   -0.3120   16.4510 C.2    86  ASP86       0.2266
    147  O         29.2360   -0.3550   15.9370 O.2    86  ASP86      -0.2867
    148  CB        26.8930   -1.7650   14.8240 C.3    86  ASP86       0.1410
    149  CG        26.2690   -3.1310   14.5910 C.2    86  ASP86       0.3668
    150  OD1       25.5920   -3.3110   13.5610 O.co2  86  ASP86      -0.2456
    151  OD2       26.4610   -4.0290   15.4350 O.co2  86  ASP86      -0.2456
    152  N         17.9960    2.9340   16.0640 N.3   129  LEU129     -0.1245
    153  CA        18.6340    3.0300   14.7570 C.3   129  LEU129      0.1561
    154  C         19.1760    4.4150   14.4630 C.2   129  LEU129      0.2260
    155  O         18.8140    5.3890   15.1220 O.2   129  LEU129     -0.2867
    156  CB        17.6430    2.6110   13.6730 C.3   129  LEU129      0.0270
    157  CG        16.9580    1.2830   13.9920 C.3   129  LEU129      0.0019
    158  CD1       15.9340    0.9860   12.9180 C.3   129  LEU129      0.0001
    159  CD2       17.9920    0.1640   14.1000 C.3   129  LEU129      0.0001
    160  N         12.9980    2.2720   17.3870 N.3   139  SER139     -0.1202
    161  CA        12.2710    1.3650   16.5080 C.3   139  SER139      0.2020
    162  C         11.7630    0.1030   17.1860 C.2   139  SER139      0.2619
    163  O         12.1570   -0.2260   18.3060 O.2   139  SER139     -0.2717
    164  CB        13.1430    0.9650   15.3180 C.3   139  SER139      0.2103
    165  OG        13.9100   -0.1820   15.6140 O.3   139  SER139     -0.2182
    166  N         10.8910   -0.5950   16.4600 N.am  140  ASP140     -0.1959
    167  CA        10.2670   -1.8380   16.8830 C.3   140  ASP140      0.1840
    168  C          9.2790   -1.6340   18.0190 C.2   140  ASP140      0.2622
    169  O          9.6480   -1.6240   19.1940 O.2   140  ASP140     -0.2715
    170  CB        11.3180   -2.8790   17.2850 C.3   140  ASP140      0.1450
    171  CG        10.7270   -4.2770   17.4070 C.2   140  ASP140      0.3671
    172  OD1       11.4990   -5.2580   17.4830 O.co2 140  ASP140     -0.2456
    173  OD2        9.4830   -4.3920   17.4290 O.co2 140  ASP140     -0.2456
    174  N          8.0120   -1.4810   17.6520 N.am  141  PHE141     -0.1974
    175  CA         6.9590   -1.2760   18.6310 C.3   141  PHE141      0.1639
    176  C          6.1200   -2.5240   18.8260 C.2   141  PHE141      0.2290
    177  O          4.9440   -2.4550   19.1840 O.2   141  PHE141     -0.2864
    178  CB         6.1010   -0.0860   18.2130 C.3   141  PHE141      0.0560
    179  CG         6.8330    1.2180   18.3020 C.ar  141  PHE141     -0.0200
    180  CD1        7.7500    1.5860   17.3250 C.ar  141  PHE141     -0.0042
    181  CD2        6.6800    2.0320   19.4130 C.ar  141  PHE141     -0.0042
    182  CE1        8.5080    2.7410   17.4620 C.ar  141  PHE141     -0.0003
    183  CE2        7.4340    3.1870   19.5550 C.ar  141  PHE141     -0.0003
    184  CZ         8.3470    3.5400   18.5830 C.ar  141  PHE141     -0.0000
@<TRIPOS>BOND
     1     1     2    1
     2     2     5    1
     3     2     3    1
     4     5     6    1
     5     6     7    1
     6     9     7   am
     7     7     8    2
     8     3     4    2
     9     3    10   am
    10    10    11    1
    11   112   110   ar
    12   112   113   ar
    13    16    14    1
    14   110   108   ar
    15   114   113    1
    16    11    14    1
    17    11    12    1
    18   113   111   ar
    19    48    49    1
    20   108   107    1
    21   108   109   ar
    22    15    14    1
    23   107   104    1
    24    49    50    1
    25    49    52    1
    26    50    51    2
    27   111   109   ar
    28    12    13    2
    29    12    17   am
    30    24    22    1
    31   125   126    1
    32   125   122    1
    33    22    23    1
    34    22    21    1
    35    89    88    2
    36    17    18    1
    37   104   103    1
    38   104   105    1
    39   103    96   am
    40    43    44    2
    41    43    42    1
    42    86    87    1
    43   106   105    2
    44    53    54    1
    45   122   121    1
    46   122   123    1
    47    56    55    2
    48   105   115   am
    49    88    87    1
    50    88    94   am
    51    18    21    1
    52    18    19    1
    53    55    54    1
    54   121   117   am
    55   124   123    2
    56    95    96    1
    57    95    94    1
    58    95    98    1
    59    96    97    2
    60    87    90    1
    61    42    41    1
    62    42    45    1
    63    54    57    1
    64   123   127   am
    65   115   116    1
    66    46    45    1
    67   117   116    1
    68   117   118    2
    69    99    98    1
    70    99   100    1
    71    19    25   am
    72    19    20    2
    73    90    91    1
    74   116   119    1
    75    25    26    1
    76    45    47    1
    77   127   128    1
    78    57    58    1
    79    91    92    1
    80    91    93    1
    81   101   100   ar
    82    28    27    2
    83   100   102   ar
    84   128   129    1
    85    26    27    1
    86    58    59    1
    87   119   120    1
    88   131   129   am
    89   131   132    1
    90   129   130    2
    91   132   133    1
    92    59    60    1
    93    84    83    1
    94    32    31    2
    95    81    82    2
    96    81    80    1
    97    31    30    1
    98    60    61    1
    99   133   134    2
   100   133   135   am
   101   158   157    1
   102    83    80    1
   103    83    85    1
   104    80    79    1
   105    37    35   ar
   106    37    39   ar
   107    35    34   ar
   108    75    76    1
   109    75    72    1
   110    74    73    2
   111   135   136    1
   112   150   149   ar
   113    77    76    2
   114   156   157    1
   115   156   153    1
   116    76    78   am
   117    73    72    1
   118    30    29    1
   119    30    33    1
   120   157   159    1
   121    70    68   ar
   122   154   153    1
   123   154   155    2
   124    72    71    1
   125    40    39    1
   126   149   148    1
   127   149   151   ar
   128    33    34    1
   129    39    38   ar
   130    34    36   ar
   131   153   152    1
   132   140   141    1
   133   140   139    1
   134   148   145    1
   135   142   141   ar
   136   136   139    1
   137   136   137    1
   138    68    69   ar
   139    68    67    1
   140    64    65    2
   141    64    63    1
   142   141   143   ar
   143   164   165    1
   144   164   161    1
   145   138   137    2
   146    67    66    1
   147    66    63    1
   148    38    36   ar
   149   147   146    2
   150   145   146    1
   151   145   144    1
   152    63    62    1
   153   166   167    1
   154   166   162   am
   155   161   162    1
   156   161   160    1
   157   167   170    1
   158   167   168    1
   159   162   163    2
   160   170   171    1
   161   180   182   ar
   162   180   179   ar
   163   171   173   ar
   164   171   172   ar
   165   182   184   ar
   166   174   168   am
   167   174   175    1
   168   168   169    2
   169   178   179    1
   170   178   175    1
   171   179   181   ar
   172   184   183   ar
   173   175   176    1
   174   176   177    2
   175   181   183   ar
