@<TRIPOS>MOLECULE
tmp/2hp1A00.pdb
 169 159 0 0 0
SMALL
GASTEIGER

@<TRIPOS>ATOM
      1  N         14.8900   25.1640  -28.5250 N.3    23  SER23      -0.1217
      2  CA        14.4110   24.2960  -29.5930 C.3    23  SER23       0.1889
      3  C         15.0370   24.7540  -30.9070 C.2    23  SER23       0.2288
      4  O         14.9550   25.9260  -31.2670 O.2    23  SER23      -0.2866
      5  CB        12.8880   24.3360  -29.6840 C.3    23  SER23       0.2089
      6  OG        12.4390   23.4020  -30.6460 O.3    23  SER23      -0.2183
      7  N         14.2090   24.6180  -33.9300 N.3    25  VAL25      -0.1231
      8  CA        13.3480   25.2590  -34.9070 C.3    25  VAL25       0.1692
      9  C         13.4110   26.7830  -34.8120 C.2    25  VAL25       0.2591
     10  O         13.0340   27.4840  -35.7460 O.2    25  VAL25      -0.2718
     11  CB        11.8960   24.7990  -34.7230 C.3    25  VAL25       0.0266
     12  CG1       11.2750   25.4700  -33.5040 C.3    25  VAL25       0.0020
     13  CG2       11.1080   25.1020  -35.9700 C.3    25  VAL25       0.0020
     14  N         13.9040   27.2890  -33.6850 N.am   26  ARG26      -0.1980
     15  CA        14.0000   28.7320  -33.4610 C.3    26  ARG26       0.1597
     16  C         15.3430   29.3320  -33.8900 C.2    26  ARG26       0.2287
     17  O         15.5400   30.5450  -33.7920 O.2    26  ARG26      -0.2864
     18  CB        13.7700   29.0360  -31.9740 C.3    26  ARG26       0.0334
     19  CG        12.4770   28.4700  -31.4150 C.3    26  ARG26       0.0492
     20  CD        12.4610   28.5210  -29.8870 C.3    26  ARG26       0.2205
     21  NE        11.3320   27.7770  -29.3340 N.pl3  26  ARG26      -0.0865
     22  CZ        11.1130   27.5950  -28.0350 C.cat  26  ARG26       0.5346
     23  NH1       11.9440   28.1080  -27.1360 N.pl3  26  ARG26       0.1354
     24  NH2       10.0720   26.8780  -27.6340 N.pl3  26  ARG26       0.1354
     25  N          4.0170   28.2020  -32.6910 N.3    61  TRP61      -0.1241
     26  CA         4.0100   26.9510  -33.4550 C.3    61  TRP61       0.1605
     27  C          2.7570   26.0900  -33.3890 C.2    61  TRP61       0.2264
     28  O          2.8370   24.8620  -33.3870 O.2    61  TRP61      -0.2867
     29  CB         5.2470   26.1070  -33.1060 C.3    61  TRP61       0.0550
     30  CG         6.5230   26.8930  -33.2310 C.ar   61  TRP61       0.0003
     31  CD1        7.0610   27.7390  -32.3020 C.ar   61  TRP61       0.0946
     32  CD2        7.3670   26.9800  -34.3830 C.ar   61  TRP61       0.0152
     33  NE1        8.1830   28.3480  -32.8040 N.ar   61  TRP61      -0.2442
     34  CE2        8.3940   27.9010  -34.0800 C.ar   61  TRP61       0.0810
     35  CE3        7.3540   26.3700  -35.6470 C.ar   61  TRP61       0.0012
     36  CZ2        9.3970   28.2280  -34.9920 C.ar   61  TRP61       0.0191
     37  CZ3        8.3520   26.6980  -36.5550 C.ar   61  TRP61       0.0001
     38  CH2        9.3600   27.6200  -36.2210 C.ar   61  TRP61       0.0015
     39  N          3.6870   16.5480  -23.7600 N.3   116  SER116     -0.1202
     40  CA         4.0950   17.1180  -25.0450 C.3   116  SER116      0.2020
     41  C          3.7510   16.1600  -26.1770 C.2   116  SER116      0.2619
     42  O          3.3660   15.0240  -25.9320 O.2   116  SER116     -0.2717
     43  CB         5.6010   17.3800  -25.0600 C.3   116  SER116      0.2103
     44  OG         6.3240   16.1590  -25.0330 O.3   116  SER116     -0.2182
     45  N          3.8840   16.6320  -27.4140 N.am  117  GLY117     -0.1942
     46  CA         3.6090   15.7910  -28.5640 C.3   117  GLY117      0.2014
     47  C          4.6780   14.7150  -28.6780 C.2   117  GLY117      0.2639
     48  O          4.4090   13.6030  -29.1350 O.2   117  GLY117     -0.2714
     49  N          5.8960   15.0420  -28.2550 N.am  118  THR118     -0.1950
     50  CA         6.9950   14.0850  -28.3030 C.3   118  THR118      0.1897
     51  C          6.6900   12.8850  -27.4180 C.2   118  THR118      0.2313
     52  O          6.9440   11.7400  -27.8100 O.2   118  THR118     -0.2863
     53  CB         8.3230   14.7310  -27.8610 C.3   118  THR118      0.1794
     54  OG1        8.8100   15.5720  -28.9160 O.3   118  THR118     -0.2208
     55  CG2        9.3760   13.6650  -27.5390 C.3   118  THR118      0.0378
     56  N          3.6970   10.8020  -28.9820 N.3   121  CYS121     -0.1235
     57  CA         4.1190    9.9630  -30.0970 C.3   121  CYS121      0.1677
     58  C          4.9740    8.7800  -29.6270 C.2   121  CYS121      0.2270
     59  O          4.7930    7.6490  -30.0930 O.2   121  CYS121     -0.2867
     60  CB         4.8820   10.8030  -31.1240 C.3   121  CYS121      0.0956
     61  SG         3.8650   12.0620  -31.9670 S.3   121  CYS121     -0.0801
     62  N          7.2670   14.6340  -39.0270 N.3   144  TYR144     -0.1227
     63  CA         7.9620   14.7580  -37.7430 C.3   144  TYR144      0.1736
     64  C          7.0260   14.3080  -36.6300 C.2   144  TYR144      0.2595
     65  O          5.8770   14.7350  -36.5680 O.2   144  TYR144     -0.2718
     66  CB         8.3930   16.2120  -37.5080 C.3   144  TYR144      0.0548
     67  CG         9.1040   16.4530  -36.1900 C.ar  144  TYR144     -0.0200
     68  CD1       10.3540   15.8910  -35.9330 C.ar  144  TYR144     -0.0009
     69  CD2        8.5170   17.2280  -35.1900 C.ar  144  TYR144     -0.0009
     70  CE1       11.0020   16.0900  -34.7130 C.ar  144  TYR144      0.0417
     71  CE2        9.1580   17.4370  -33.9610 C.ar  144  TYR144      0.0417
     72  CZ        10.4000   16.8630  -33.7350 C.ar  144  TYR144      0.1957
     73  OH        11.0400   17.0610  -32.5320 O.3   144  TYR144     -0.2866
     74  N          7.5120   13.4350  -35.7570 N.am  145  HIS145     -0.1961
     75  CA         6.6930   12.9400  -34.6540 C.3   145  HIS145      0.1787
     76  C          7.4500   13.0150  -33.3290 C.2   145  HIS145      0.2620
     77  O          7.4420   12.0710  -32.5320 O.2   145  HIS145     -0.2715
     78  CB         6.2630   11.4990  -34.9350 C.3   145  HIS145      0.0785
     79  CG         5.5860   11.3190  -36.2590 C.ar  145  HIS145      0.0821
     80  ND1        4.4190   11.9720  -36.5930 N.ar  145  HIS145     -0.2267
     81  CD2        5.9090   10.5560  -37.3310 C.ar  145  HIS145      0.1154
     82  CE1        4.0550   11.6200  -37.8130 C.ar  145  HIS145      0.1986
     83  NE2        4.9420   10.7620  -38.2830 N.ar  145  HIS145     -0.2212
     84  N          8.0990   14.1500  -33.0930 N.am  146  GLY146     -0.1954
     85  CA         8.8540   14.3100  -31.8660 C.3   146  GLY146      0.1869
     86  C         10.2220   13.6910  -32.0460 C.2   146  GLY146      0.2309
     87  O         10.5110   13.1170  -33.1040 O.2   146  GLY146     -0.2863
     88  N         10.6470   19.1910  -40.0510 N.3   157  SER157     -0.1217
     89  CA        10.8630   20.2040  -39.0230 C.3   157  SER157      0.1889
     90  C         12.3260   20.6420  -39.0060 C.2   157  SER157      0.2288
     91  O         12.9710   20.6960  -40.0510 O.2   157  SER157     -0.2866
     92  CB        10.4640   19.6510  -37.6480 C.3   157  SER157      0.2089
     93  OG        10.5590   20.6500  -36.6470 O.3   157  SER157     -0.2183
     94  N          1.2300   12.3360  -40.4370 N.3   206  GLU206     -0.1245
     95  CA         0.5290   13.5860  -40.2240 C.3   206  GLU206      0.1567
     96  C         -0.5180   13.5020  -41.3360 C.2   206  GLU206      0.2260
     97  O         -0.1620   13.5100  -42.5120 O.2   206  GLU206     -0.2867
     98  CB         1.4630   14.7760  -40.4740 C.3   206  GLU206      0.0388
     99  CG         2.6490   14.8670  -39.5200 C.3   206  GLU206      0.1160
    100  CD         3.5940   16.0080  -39.8660 C.2   206  GLU206      0.3649
    101  OE1        3.1160   17.1430  -40.0820 O.co2 206  GLU206     -0.2457
    102  OE2        4.8170   15.7780  -39.9100 O.co2 206  GLU206     -0.2457
    103  N          5.2020   19.6920  -41.3490 N.3   211  ASN211     -0.1240
    104  CA         6.6310   19.6680  -41.0550 C.3   211  ASN211      0.1653
    105  C          7.6120   19.5310  -42.2020 C.2   211  ASN211      0.2266
    106  O          8.8070   19.3440  -41.9870 O.2   211  ASN211     -0.2867
    107  CB         6.9140   18.6120  -39.9920 C.3   211  ASN211      0.1155
    108  CG         6.4320   19.0440  -38.6230 C.2   211  ASN211      0.2627
    109  OD1        6.9280   20.0180  -38.0650 O.2   211  ASN211     -0.2716
    110  ND2        5.4530   18.3340  -38.0840 N.am  211  ASN211     -0.0877
    111  N         -0.9680   11.3790  -36.4660 N.3   239  ASP239     -0.1239
    112  CA        -0.2820   12.2960  -35.5820 C.3   239  ASP239      0.1674
    113  C         -0.9380   13.6400  -35.8440 C.2   239  ASP239      0.2266
    114  O         -0.5890   14.3280  -36.8060 O.2   239  ASP239     -0.2867
    115  CB         1.2030   12.3930  -35.9150 C.3   239  ASP239      0.1410
    116  CG         1.9230   13.3850  -35.0260 C.2   239  ASP239      0.3668
    117  OD1        1.2380   14.1410  -34.3020 O.co2 239  ASP239     -0.2456
    118  OD2        3.1670   13.4210  -35.0440 O.co2 239  ASP239     -0.2456
    119  N         -0.8540   16.1530  -33.7100 N.3   241  VAL241     -0.1231
    120  CA        -0.2670   17.0640  -32.7420 C.3   241  VAL241      0.1692
    121  C         -0.3640   18.4870  -33.2870 C.2   241  VAL241      0.2591
    122  O         -0.6020   19.4260  -32.5370 O.2   241  VAL241     -0.2718
    123  CB         1.2110   16.7180  -32.4760 C.3   241  VAL241      0.0266
    124  CG1        1.9170   17.8910  -31.8050 C.3   241  VAL241      0.0020
    125  CG2        1.2980   15.4850  -31.5910 C.3   241  VAL241      0.0020
    126  N         -0.1970   18.6330  -34.6000 N.am  242  MET242     -0.1979
    127  CA        -0.2720   19.9430  -35.2430 C.3   242  MET242      0.1605
    128  C         -1.6410   20.2000  -35.8760 C.2   242  MET242      0.2287
    129  O         -2.1820   21.2970  -35.7750 O.2   242  MET242     -0.2864
    130  CB         0.8150   20.0740  -36.3170 C.3   242  MET242      0.0413
    131  CG         0.9010   21.4660  -36.9230 C.3   242  MET242      0.0598
    132  SD         2.1130   21.6250  -38.2400 S.3   242  MET242     -0.1393
    133  CE         3.6360   21.6670  -37.3060 C.3   242  MET242      0.0692
    134  N          0.2320   20.5740  -28.6450 N.3   267  LYS267     -0.1245
    135  CA         0.0600   21.9910  -28.9600 C.3   267  LYS267      0.1561
    136  C         -1.2600   22.5860  -28.4720 C.2   267  LYS267      0.2260
    137  O         -1.3950   22.9230  -27.3050 O.2   267  LYS267     -0.2867
    138  CB         0.1760   22.1920  -30.4700 C.3   267  LYS267      0.0271
    139  CG         1.5350   21.8490  -31.0470 C.3   267  LYS267      0.0035
    140  CD         1.4560   21.7840  -32.5620 C.3   267  LYS267      0.0206
    141  CE         2.8180   21.5500  -33.1500 C.3   267  LYS267      0.1093
    142  NZ         3.7170   22.6240  -32.6680 N.3   267  LYS267     -0.1314
    143  N          1.1880   20.3540  -22.8430 N.3   275  VAL275     -0.1245
    144  CA         0.2570   19.2340  -22.7810 C.3   275  VAL275      0.1561
    145  C          0.2620   18.4230  -24.0670 C.2   275  VAL275      0.2260
    146  O          0.5420   18.9310  -25.1550 O.2   275  VAL275     -0.2867
    147  CB        -1.2050   19.6960  -22.5130 C.3   275  VAL275      0.0252
    148  CG1       -2.1170   18.4780  -22.3240 C.3   275  VAL275      0.0019
    149  CG2       -1.2540   20.5730  -21.2930 C.3   275  VAL275      0.0019
    150  N          8.1190   24.6930  -42.6230 N.3   400  GLU400     -0.1245
    151  CA         7.1590   24.8000  -41.5350 C.3   400  GLU400      0.1567
    152  C          5.8870   25.4540  -42.0530 C.2   400  GLU400      0.2260
    153  O          5.9490   26.4640  -42.7500 O.2   400  GLU400     -0.2867
    154  CB         7.7310   25.6460  -40.3950 C.3   400  GLU400      0.0388
    155  CG         8.2570   24.8480  -39.2160 C.3   400  GLU400      0.1160
    156  CD         7.1770   24.0220  -38.5300 C.2   400  GLU400      0.3649
    157  OE1        6.0620   24.5430  -38.2770 O.co2 400  GLU400     -0.2457
    158  OE2        7.4550   22.8420  -38.2330 O.co2 400  GLU400     -0.2457
    159  N          0.5510   29.4990  -39.4910 N.3   403  PHE403     -0.1241
    160  CA        -0.6650   29.4050  -38.6990 C.3   403  PHE403      0.1605
    161  C         -1.3670   30.7490  -38.5270 C.2   403  PHE403      0.2264
    162  O         -0.7250   31.7950  -38.4630 O.2   403  PHE403     -0.2867
    163  CB        -0.3450   28.8330  -37.3100 C.3   403  PHE403      0.0534
    164  CG         0.3490   27.4970  -37.3410 C.ar  403  PHE403     -0.0203
    165  CD1        1.6690   27.3760  -36.9270 C.ar  403  PHE403     -0.0042
    166  CD2       -0.3170   26.3630  -37.7870 C.ar  403  PHE403     -0.0042
    167  CE1        2.3230   26.1390  -36.9540 C.ar  403  PHE403     -0.0003
    168  CE2        0.3230   25.1190  -37.8210 C.ar  403  PHE403     -0.0003
    169  CZ         1.6480   25.0120  -37.4030 C.ar  403  PHE403     -0.0000
@<TRIPOS>BOND
     1   153   152    2
     2   150   151    1
     3    97    96    2
     4   105   106    2
     5   105   104    1
     6   152   151    1
     7   151   154    1
     8   103   104    1
     9    96    95    1
    10   104   107    1
    11    98    95    1
    12    98    99    1
    13    94    95    1
    14   154   155    1
    15   101   100   ar
    16    88    89    1
    17    91    90    2
    18   107   108    1
    19   102   100   ar
    20   100    99    1
    21   159   160    1
    22   155   156    1
    23    62    63    1
    24    89    90    1
    25    89    92    1
    26   160   161    1
    27   160   163    1
    28   108   110   am
    29   108   109    2
    30   156   157   ar
    31   156   158   ar
    32   161   162    2
    33    83    82   ar
    34    83    81   ar
    35   132   133    1
    36   132   131    1
    37   168   166   ar
    38   168   169   ar
    39    82    80   ar
    40   166   164   ar
    41    63    66    1
    42    63    64    1
    43    92    93    1
    44    66    67    1
    45   169   167   ar
    46   164   163    1
    47   164   165   ar
    48    81    79   ar
    49   167   165   ar
    50   131   130    1
    51   114   113    2
    52    64    65    2
    53    64    74   am
    54    80    79   ar
    55    37    38   ar
    56    37    35   ar
    57   111   112    1
    58   130   127    1
    59    79    78    1
    60    38    36   ar
    61    67    68   ar
    62    67    69   ar
    63    13    11    1
    64    68    70   ar
    65   115   112    1
    66   115   116    1
    67   128   129    2
    68   128   127    1
    69   113   112    1
    70    74    75    1
    71    10     9    2
    72    35    32   ar
    73   127   126    1
    74    69    71   ar
    75   118   116   ar
    76   116   117   ar
    77    36    34   ar
    78    78    75    1
    79     8     9    1
    80     8    11    1
    81     8     7    1
    82     9    14   am
    83    11    12    1
    84    70    72   ar
    85    75    76    1
    86   126   121   am
    87    32    34   ar
    88    32    30   ar
    89    34    33   ar
    90    71    72   ar
    91    16    17    2
    92    16    15    1
    93    72    73    1
    94   119   120    1
    95    14    15    1
    96    15    18    1
    97    26    27    1
    98    26    29    1
    99    26    25    1
   100    27    28    2
   101    76    84   am
   102    76    77    2
   103   121   120    1
   104   121   122    2
   105    30    29    1
   106    30    31   ar
   107   141   142    1
   108   141   140    1
   109    87    86    2
   110    84    85    1
   111    33    31   ar
   112   120   123    1
   113   140   139    1
   114   123   124    1
   115   123   125    1
   116    86    85    1
   117    18    19    1
   118    61    60    1
   119    19    20    1
   120     4     3    2
   121    60    57    1
   122   139   138    1
   123     3     2    1
   124     6     5    1
   125   138   135    1
   126    57    58    1
   127    57    56    1
   128    59    58    2
   129    20    21    1
   130     5     2    1
   131     2     1    1
   132    21    22    2
   133    48    47    2
   134   135   134    1
   135   135   136    1
   136    54    53    1
   137    47    46    1
   138    47    49   am
   139    46    45    1
   140   136   137    2
   141    50    49    1
   142    50    53    1
   143    50    51    1
   144    22    24    1
   145    22    23    1
   146    53    55    1
   147    52    51    2
   148    45    41   am
   149    41    42    2
   150    41    40    1
   151   146   145    2
   152    43    40    1
   153    43    44    1
   154    40    39    1
   155   145   144    1
   156   143   144    1
   157   144   147    1
   158   147   148    1
   159   147   149    1
