@<TRIPOS>MOLECULE
tmp/2hp1B02.pdb
 98 95 0 0 0
SMALL
GASTEIGER

@<TRIPOS>ATOM
      1  N         -1.2130    8.6390  -14.8260 N.3    23  SER23      -0.1203
      2  CA         0.0470    8.0280  -14.4320 C.3    23  SER23       0.2005
      3  C         -0.2420    6.8220  -13.5360 C.2    23  SER23       0.2461
      4  O         -0.9330    6.9350  -12.5280 O.2    23  SER23      -0.2732
      5  CB         0.9200    9.0450  -13.7060 C.3    23  SER23       0.2103
      6  OG         2.2580    8.5930  -13.6420 O.3    23  SER23      -0.2182
      7  N          0.3080    5.6530  -13.8950 N.am   24  PRO24      -0.2717
      8  CA         0.1530    4.3740  -13.1950 C.3    24  PRO24       0.1535
      9  C         -0.0350    4.3810  -11.6810 C.2    24  PRO24       0.2598
     10  O         -1.1030    4.0090  -11.1830 O.2    24  PRO24      -0.2715
     11  CB         1.4010    3.6060  -13.6180 C.3    24  PRO24       0.0310
     12  CG         1.5740    4.0500  -15.0190 C.3    24  PRO24       0.0237
     13  CD         1.3670    5.5470  -14.9160 C.3    24  PRO24       0.0939
     14  N          0.9990    4.7920  -10.9550 N.am   25  VAL25      -0.1964
     15  CA         0.9440    4.7970   -9.4970 C.3    25  VAL25       0.1727
     16  C         -0.2930    5.4510   -8.8950 C.2    25  VAL25       0.2616
     17  O         -0.7800    5.0050   -7.8600 O.2    25  VAL25      -0.2715
     18  CB         2.1810    5.4830   -8.8810 C.3    25  VAL25       0.0290
     19  CG1        2.0800    6.9840   -9.0400 C.3    25  VAL25       0.0023
     20  CG2        2.2960    5.1090   -7.4070 C.3    25  VAL25       0.0023
     21  N         -0.7990    6.4990   -9.5380 N.am   26  ARG26      -0.1977
     22  CA        -1.9670    7.2100   -9.0230 C.3    26  ARG26       0.1597
     23  C         -3.1990    6.3310   -8.8240 C.2    26  ARG26       0.2287
     24  O         -4.1230    6.7120   -8.1070 O.2    26  ARG26      -0.2864
     25  CB        -2.3450    8.3710   -9.9500 C.3    26  ARG26       0.0334
     26  CG        -1.2980    9.4420  -10.0920 C.3    26  ARG26       0.0492
     27  CD        -1.7970   10.5790  -10.9840 C.3    26  ARG26       0.2205
     28  NE        -0.7100   11.4700  -11.3570 N.pl3  26  ARG26      -0.0865
     29  CZ        -0.8240   12.4940  -12.1990 C.cat  26  ARG26       0.5346
     30  NH1       -1.9920   12.7690  -12.7610 N.pl3  26  ARG26       0.1354
     31  NH2        0.2410   13.2310  -12.4900 N.pl3  26  ARG26       0.1354
     32  N          3.3480   16.3620   -4.8060 N.3    60  THR60      -0.1203
     33  CA         3.1360   16.1240   -6.2280 C.3    60  THR60       0.1994
     34  C          4.3310   15.4040   -6.8480 C.2    60  THR60       0.2617
     35  O          4.6560   15.5790   -8.0250 O.2    60  THR60      -0.2717
     36  CB         2.7930   17.4200   -7.0130 C.3    60  THR60       0.1784
     37  OG1        2.4050   17.0580   -8.3410 O.3    60  THR60      -0.2211
     38  CG2        3.9740   18.3770   -7.0760 C.3    60  THR60       0.0376
     39  N          4.9610   14.5800   -6.0150 N.am   61  TRP61      -0.1975
     40  CA         6.1070   13.7590   -6.3760 C.3    61  TRP61       0.1640
     41  C          7.4530   14.4560   -6.4630 C.2    61  TRP61       0.2290
     42  O          8.3490   13.9900   -7.1610 O.2    61  TRP61      -0.2864
     43  CB         5.8180   12.9990   -7.6740 C.3    61  TRP61       0.0576
     44  CG         4.6260   12.1190   -7.5180 C.ar   61  TRP61       0.0006
     45  CD1        3.3380   12.4130   -7.8540 C.ar   61  TRP61       0.0946
     46  CD2        4.5920   10.8460   -6.8790 C.ar   61  TRP61       0.0152
     47  NE1        2.5000   11.4010   -7.4590 N.ar   61  TRP61      -0.2442
     48  CE2        3.2470   10.4240   -6.8570 C.ar   61  TRP61       0.0810
     49  CE3        5.5700   10.0170   -6.3190 C.ar   61  TRP61       0.0012
     50  CZ2        2.8550    9.2110   -6.2980 C.ar   61  TRP61       0.0191
     51  CZ3        5.1790    8.8090   -5.7630 C.ar   61  TRP61       0.0001
     52  CH2        3.8320    8.4180   -5.7580 C.ar   61  TRP61       0.0015
     53  N         14.8980    4.7710  -12.2950 N.3   144  TYR144     -0.1241
     54  CA        13.9050    5.1470  -13.2970 C.3   144  TYR144      0.1605
     55  C         14.3640    6.3940  -14.0590 C.2   144  TYR144      0.2264
     56  O         14.8030    7.3710  -13.4520 O.2   144  TYR144     -0.2867
     57  CB        12.5670    5.4150  -12.5930 C.3   144  TYR144      0.0534
     58  CG        11.4750    5.9810  -13.4740 C.ar  144  TYR144     -0.0201
     59  CD1       11.0050    5.2790  -14.5840 C.ar  144  TYR144     -0.0009
     60  CD2       10.8980    7.2160  -13.1870 C.ar  144  TYR144     -0.0009
     61  CE1        9.9850    5.7920  -15.3860 C.ar  144  TYR144      0.0417
     62  CE2        9.8810    7.7410  -13.9820 C.ar  144  TYR144      0.0417
     63  CZ         9.4270    7.0260  -15.0770 C.ar  144  TYR144      0.1957
     64  OH         8.4120    7.5440  -15.8530 O.3   144  TYR144     -0.2866
     65  N         13.0320    6.1040   -6.7540 N.3   182  ASN182     -0.1240
     66  CA        12.0560    5.3740   -7.5530 C.3   182  ASN182      0.1653
     67  C         11.9020    3.8790   -7.2770 C.2   182  ASN182      0.2266
     68  O         11.2380    3.1680   -8.0240 O.2   182  ASN182     -0.2867
     69  CB        12.3340    5.6270   -9.0350 C.3   182  ASN182      0.1155
     70  CG        11.9110    7.0250   -9.4660 C.2   182  ASN182      0.2627
     71  OD1       10.7270    7.3090   -9.5950 O.2   182  ASN182     -0.2716
     72  ND2       12.8800    7.9050   -9.6650 N.am  182  ASN182     -0.0877
     73  N         14.7800   13.9910   -9.6280 N.3   213  MET213     -0.1245
     74  CA        14.1460   13.9870   -8.3140 C.3   213  MET213      0.1570
     75  C         15.0510   14.5490   -7.2260 C.2   213  MET213      0.2261
     76  O         14.5790   15.2000   -6.2910 O.2   213  MET213     -0.2867
     77  CB        13.7220   12.5600   -7.9380 C.3   213  MET213      0.0387
     78  CG        12.9730   12.4650   -6.6220 C.3   213  MET213      0.0595
     79  SD        12.5620   10.7740   -6.1510 S.3   213  MET213     -0.1393
     80  CE        11.1130   10.4360   -7.1630 C.3   213  MET213      0.0692
     81  N         11.0990   17.9420  -12.2920 N.3   238  LYS238     -0.1245
     82  CA        10.2970   18.2300  -11.1160 C.3   238  LYS238      0.1561
     83  C         10.5020   19.6370  -10.5440 C.2   238  LYS238      0.2260
     84  O          9.9220   20.5960  -11.0520 O.2   238  LYS238     -0.2867
     85  CB        10.5580   17.1330  -10.0730 C.3   238  LYS238      0.0271
     86  CG        10.2150   15.7400  -10.6310 C.3   238  LYS238      0.0035
     87  CD        10.1150   14.6360   -9.5780 C.3   238  LYS238      0.0206
     88  CE         9.5320   13.3420  -10.1790 C.3   238  LYS238      0.1093
     89  NZ        10.5840   12.4610  -10.7370 N.3   238  LYS238     -0.1314
     90  N          8.5140    4.1580   -3.3200 N.3   371  GLU371     -0.1245
     91  CA         8.5650    5.5790   -3.6490 C.3   371  GLU371      0.1567
     92  C          9.1490    6.3340   -2.4630 C.2   371  GLU371      0.2260
     93  O          8.7910    6.0690   -1.3180 O.2   371  GLU371     -0.2867
     94  CB         7.1640    6.1210   -3.9390 C.3   371  GLU371      0.0388
     95  CG         6.5310    5.6250   -5.2290 C.3   371  GLU371      0.1160
     96  CD         7.3310    6.0140   -6.4600 C.2   371  GLU371      0.3649
     97  OE1        7.8730    7.1410   -6.4880 O.co2 371  GLU371     -0.2457
     98  OE2        7.4090    5.1970   -7.4060 O.co2 371  GLU371     -0.2457
@<TRIPOS>BOND
     1    64    63    1
     2    61    63   ar
     3    61    59   ar
     4    63    62   ar
     5    12    13    1
     6    12    11    1
     7    13     7    1
     8     1     2    1
     9    59    58   ar
    10     2     5    1
    11     2     3    1
    12    55    56    2
    13    55    54    1
    14    62    60   ar
    15     7     3   am
    16     7     8    1
    17     5     6    1
    18    11     8    1
    19     3     4    2
    20    58    60   ar
    21    58    57    1
    22    54    57    1
    23    54    53    1
    24     8     9    1
    25    30    29    1
    26    31    29    1
    27    81    82    1
    28    29    28    2
    29     9    10    2
    30     9    14   am
    31    28    27    1
    32    82    83    1
    33    82    85    1
    34    84    83    2
    35    27    26    1
    36    14    15    1
    37    89    88    1
    38    86    85    1
    39    86    87    1
    40    88    87    1
    41    26    25    1
    42    25    22    1
    43    72    70   am
    44    73    74    1
    45    71    70    2
    46    21    22    1
    47    21    16   am
    48    15    16    1
    49    15    18    1
    50    70    69    1
    51    19    18    1
    52    69    66    1
    53    22    23    1
    54    16    17    2
    55    18    20    1
    56    23    24    2
    57    37    36    1
    58    74    77    1
    59    74    75    1
    60    35    34    2
    61    68    67    2
    62    77    78    1
    63    45    44   ar
    64    45    47   ar
    65    43    44    1
    66    43    40    1
    67    66    67    1
    68    66    65    1
    69    44    46   ar
    70    47    48   ar
    71    98    96   ar
    72    75    76    2
    73    80    79    1
    74    42    41    2
    75    38    36    1
    76    36    33    1
    77    46    48   ar
    78    46    49   ar
    79    48    50   ar
    80    34    33    1
    81    34    39   am
    82    78    79    1
    83    97    96   ar
    84    41    40    1
    85    96    95    1
    86    40    39    1
    87    49    51   ar
    88    50    52   ar
    89    33    32    1
    90    51    52   ar
    91    95    94    1
    92    94    91    1
    93    91    90    1
    94    91    92    1
    95    92    93    2
