@<TRIPOS>MOLECULE
tmp/2hp2A00.pdb
 163 157 0 0 0
SMALL
GASTEIGER

@<TRIPOS>ATOM
      1  N         18.5020   27.8580   29.0170 N.3    23  SER23      -0.1203
      2  CA        18.8110   27.0080   30.1580 C.3    23  SER23       0.2005
      3  C         18.1440   27.6140   31.3940 C.2    23  SER23       0.2461
      4  O         18.2690   28.8100   31.6530 O.2    23  SER23      -0.2732
      5  CB        20.3260   26.8920   30.3530 C.3    23  SER23       0.2103
      6  OG        20.6390   25.8120   31.2110 O.3    23  SER23      -0.2182
      7  N         17.4220   26.7910   32.1690 N.am   24  PRO24      -0.2717
      8  CA        16.7050   27.1850   33.3830 C.3    24  PRO24       0.1535
      9  C         17.3100   28.2550   34.2980 C.2    24  PRO24       0.2598
     10  O         16.6850   29.2840   34.5280 O.2    24  PRO24      -0.2715
     11  CB        16.5000   25.8550   34.0910 C.3    24  PRO24       0.0310
     12  CG        16.2300   24.9580   32.9610 C.3    24  PRO24       0.0237
     13  CD        17.3280   25.3330   31.9830 C.3    24  PRO24       0.0939
     14  N         18.5080   28.0220   34.8250 N.am   25  VAL25      -0.1964
     15  CA        19.1290   28.9930   35.7200 C.3    25  VAL25       0.1727
     16  C         19.0880   30.4210   35.1790 C.2    25  VAL25       0.2616
     17  O         18.8580   31.3710   35.9300 O.2    25  VAL25      -0.2715
     18  CB        20.6130   28.6350   36.0150 C.3    25  VAL25       0.0290
     19  CG1       21.5090   29.0090   34.8260 C.3    25  VAL25       0.0023
     20  CG2       21.0750   29.3510   37.2800 C.3    25  VAL25       0.0023
     21  N         19.2920   30.5640   33.8730 N.am   26  ARG26      -0.1977
     22  CA        19.3220   31.8760   33.2350 C.3    26  ARG26       0.1597
     23  C         18.0960   32.7410   33.4660 C.2    26  ARG26       0.2287
     24  O         18.1590   33.9540   33.2910 O.2    26  ARG26      -0.2864
     25  CB        19.5610   31.7170   31.7360 C.3    26  ARG26       0.0334
     26  CG        20.8150   30.9400   31.4200 C.3    26  ARG26       0.0492
     27  CD        21.0820   30.9000   29.9380 C.3    26  ARG26       0.2205
     28  NE        22.1310   29.9420   29.6300 N.pl3  26  ARG26      -0.0865
     29  CZ        22.8410   29.9420   28.5080 C.cat  26  ARG26       0.5346
     30  NH1       22.6160   30.8610   27.5780 N.pl3  26  ARG26       0.1354
     31  NH2       23.7700   29.0170   28.3120 N.pl3  26  ARG26       0.1354
     32  N         30.0500   30.2060   33.1560 N.3    61  TRP61      -0.1241
     33  CA        29.9390   28.9770   33.9380 C.3    61  TRP61       0.1605
     34  C         31.1510   28.0350   33.9540 C.2    61  TRP61       0.2264
     35  O         30.9910   26.8350   34.1340 O.2    61  TRP61      -0.2867
     36  CB        28.6920   28.1950   33.5210 C.3    61  TRP61       0.0550
     37  CG        27.4270   28.9810   33.6430 C.ar   61  TRP61       0.0003
     38  CD1       26.8050   29.6840   32.6550 C.ar   61  TRP61       0.0946
     39  CD2       26.6520   29.1830   34.8290 C.ar   61  TRP61       0.0152
     40  NE1       25.6970   30.3110   33.1460 N.ar   61  TRP61      -0.2442
     41  CE2       25.5740   30.0240   34.4800 C.ar   61  TRP61       0.0810
     42  CE3       26.7650   28.7380   36.1550 C.ar   61  TRP61       0.0012
     43  CZ2       24.6070   30.4340   35.4070 C.ar   61  TRP61       0.0191
     44  CZ3       25.8030   29.1460   37.0820 C.ar   61  TRP61       0.0001
     45  CH2       24.7340   29.9890   36.6970 C.ar   61  TRP61       0.0015
     46  N         29.1390   18.2560   24.9360 N.3   116  SER116     -0.1202
     47  CA        28.6800   18.9090   26.1500 C.3   116  SER116      0.2020
     48  C         28.9720   18.0020   27.3170 C.2   116  SER116      0.2619
     49  O         29.3880   16.8570   27.1300 O.2   116  SER116     -0.2717
     50  CB        27.1720   19.1820   26.0830 C.3   116  SER116      0.2103
     51  OG        26.4320   17.9760   26.0110 O.3   116  SER116     -0.2182
     52  N         28.7620   18.5160   28.5230 N.am  117  GLY117     -0.1942
     53  CA        28.9780   17.6990   29.6980 C.3   117  GLY117      0.2014
     54  C         27.9650   16.5620   29.7160 C.2   117  GLY117      0.2639
     55  O         28.3170   15.4190   30.0160 O.2   117  GLY117     -0.2714
     56  N         26.7090   16.8700   29.3840 N.am  118  THR118     -0.1950
     57  CA        25.6480   15.8710   29.3740 C.3   118  THR118      0.1897
     58  C         25.9940   14.6690   28.4950 C.2   118  THR118      0.2313
     59  O         25.6950   13.5270   28.8590 O.2   118  THR118     -0.2863
     60  CB        24.3110   16.4790   28.9070 C.3   118  THR118      0.1794
     61  OG1       23.9190   17.5200   29.8070 O.3   118  THR118     -0.2208
     62  CG2       23.2180   15.4270   28.8910 C.3   118  THR118      0.0378
     63  N         28.8440   12.6680   30.3760 N.3   121  CYS121     -0.1235
     64  CA        28.3170   11.9490   31.5220 C.3   121  CYS121      0.1677
     65  C         27.3860   10.8040   31.1780 C.2   121  CYS121      0.2270
     66  O         27.4210    9.7730   31.8430 O.2   121  CYS121     -0.2867
     67  CB        27.6140   12.9100   32.4850 C.3   121  CYS121      0.0956
     68  SG        28.7130   14.1020   33.3130 S.3   121  CYS121     -0.0801
     69  N         25.7730   17.1010   40.1230 N.3   144  TYR144     -0.1227
     70  CA        25.0790   17.2240   38.8610 C.3   144  TYR144      0.1736
     71  C         25.9270   16.6830   37.7120 C.2   144  TYR144      0.2595
     72  O         27.1160   17.0010   37.5920 O.2   144  TYR144     -0.2718
     73  CB        24.7240   18.6860   38.6200 C.3   144  TYR144      0.0548
     74  CG        23.8880   18.9030   37.3960 C.ar  144  TYR144     -0.0200
     75  CD1       22.5960   18.3960   37.3160 C.ar  144  TYR144     -0.0009
     76  CD2       24.3900   19.6190   36.3120 C.ar  144  TYR144     -0.0009
     77  CE1       21.8190   18.6020   36.1770 C.ar  144  TYR144      0.0417
     78  CE2       23.6270   19.8260   35.1770 C.ar  144  TYR144      0.0417
     79  CZ        22.3460   19.3190   35.1170 C.ar  144  TYR144      0.1957
     80  OH        21.5920   19.5440   33.9980 O.3   144  TYR144     -0.2866
     81  N         25.2980   15.8660   36.8690 N.am  145  HIS145     -0.1961
     82  CA        25.9760   15.2550   35.7450 C.3   145  HIS145      0.1787
     83  C         25.2010   15.4310   34.4500 C.2   145  HIS145      0.2620
     84  O         25.3830   14.6690   33.4980 O.2   145  HIS145     -0.2715
     85  CB        26.1770   13.7650   36.0270 C.3   145  HIS145      0.0785
     86  CG        26.6360   13.4700   37.4210 C.ar  145  HIS145      0.0821
     87  ND1       27.4830   14.3040   38.1190 N.ar  145  HIS145     -0.2267
     88  CD2       26.3570   12.4410   38.2530 C.ar  145  HIS145      0.1154
     89  CE1       27.7010   13.8070   39.3230 C.ar  145  HIS145      0.1986
     90  NE2       27.0280   12.6760   39.4300 N.ar  145  HIS145     -0.2212
     91  N         24.3350   16.4380   34.4050 N.am  146  GLY146     -0.1954
     92  CA        23.5470   16.6640   33.2020 C.3   146  GLY146      0.1869
     93  C         22.1200   16.1480   33.3420 C.2   146  GLY146      0.2309
     94  O         21.7810   15.4900   34.3290 O.2   146  GLY146     -0.2863
     95  N         31.3910   14.5940   41.8100 N.3   206  GLU206     -0.1245
     96  CA        32.2020   15.7620   41.4960 C.3   206  GLU206      0.1567
     97  C         33.3410   15.7040   42.5200 C.2   206  GLU206      0.2260
     98  O         33.1090   15.8010   43.7240 O.2   206  GLU206     -0.2867
     99  CB        31.4020   17.0570   41.6850 C.3   206  GLU206      0.0388
    100  CG        30.2290   17.2280   40.7370 C.3   206  GLU206      0.1160
    101  CD        29.4810   18.5260   40.9690 C.2   206  GLU206      0.3649
    102  OE1       30.1200   19.5960   40.9310 O.co2 206  GLU206     -0.2457
    103  OE2       28.2550   18.4770   41.1840 O.co2 206  GLU206     -0.2457
    104  N         27.8690   22.2760   42.1490 N.3   211  ASN211     -0.1240
    105  CA        26.4400   22.3460   41.8780 C.3   211  ASN211      0.1653
    106  C         25.4960   22.3350   43.0830 C.2   211  ASN211      0.2266
    107  O         24.3040   22.0210   42.9710 O.2   211  ASN211     -0.2867
    108  CB        26.0450   21.2450   40.8820 C.3   211  ASN211      0.1155
    109  CG        26.5690   21.5110   39.4750 C.2   211  ASN211      0.2627
    110  OD1       27.6440   21.0410   39.0910 O.2   211  ASN211     -0.2716
    111  ND2       25.8120   22.2850   38.7050 N.am  211  ASN211     -0.0877
    112  N         33.5320   13.2790   37.7100 N.3   239  ASP239     -0.1239
    113  CA        32.9360   14.2030   36.7700 C.3   239  ASP239      0.1674
    114  C         33.6840   15.5210   36.9720 C.2   239  ASP239      0.2266
    115  O         33.3510   16.2990   37.8660 O.2   239  ASP239     -0.2867
    116  CB        31.4540   14.3960   37.0650 C.3   239  ASP239      0.1410
    117  CG        30.8140   15.3760   36.1160 C.2   239  ASP239      0.3668
    118  OD1       31.5780   16.0430   35.3820 O.co2 239  ASP239     -0.2456
    119  OD2       29.5640   15.4870   36.1060 O.co2 239  ASP239     -0.2456
    120  N         33.8650   18.0090   34.8180 N.3   241  VAL241     -0.1231
    121  CA        33.3910   18.9520   33.8090 C.3   241  VAL241      0.1692
    122  C         33.6380   20.3770   34.3020 C.2   241  VAL241      0.2591
    123  O         34.1550   21.2250   33.5680 O.2   241  VAL241     -0.2718
    124  CB        31.8800   18.7500   33.5290 C.3   241  VAL241      0.0266
    125  CG1       31.3450   19.8600   32.6580 C.3   241  VAL241      0.0020
    126  CG2       31.6680   17.4270   32.8360 C.3   241  VAL241      0.0020
    127  N         33.2770   20.6270   35.5550 N.am  242  MET242     -0.1979
    128  CA        33.4540   21.9420   36.1550 C.3   242  MET242      0.1605
    129  C         34.8510   22.1380   36.7080 C.2   242  MET242      0.2287
    130  O         35.4500   23.1800   36.4900 O.2   242  MET242     -0.2864
    131  CB        32.4510   22.1460   37.2830 C.3   242  MET242      0.0413
    132  CG        32.4370   23.5540   37.8330 C.3   242  MET242      0.0598
    133  SD        31.1600   23.7890   39.0780 S.3   242  MET242     -0.1393
    134  CE        29.6990   23.7320   38.0470 C.3   242  MET242      0.0692
    135  N         33.4780   22.1030   29.4780 N.3   267  LYS267     -0.1245
    136  CA        33.6580   23.5360   29.7230 C.3   267  LYS267      0.1561
    137  C         34.9990   24.1460   29.2890 C.2   267  LYS267      0.2260
    138  O         35.1420   24.5710   28.1480 O.2   267  LYS267     -0.2867
    139  CB        33.3460   23.8280   31.2010 C.3   267  LYS267      0.0271
    140  CG        31.8500   23.7740   31.4670 C.3   267  LYS267      0.0035
    141  CD        31.5100   23.6460   32.9300 C.3   267  LYS267      0.0206
    142  CE        29.9960   23.6300   33.1180 C.3   267  LYS267      0.1093
    143  NZ        29.6670   23.1150   34.4660 N.3   267  LYS267     -0.1314
    144  N         25.5520   27.4770   43.3480 N.3   400  GLU400     -0.1245
    145  CA        26.4340   27.4770   42.1840 C.3   400  GLU400      0.1567
    146  C         27.7880   28.0000   42.6320 C.2   400  GLU400      0.2260
    147  O         27.8680   29.0480   43.2530 O.2   400  GLU400     -0.2867
    148  CB        25.8720   28.3720   41.0720 C.3   400  GLU400      0.0388
    149  CG        24.5570   27.8750   40.4700 C.3   400  GLU400      0.1160
    150  CD        24.7140   26.5600   39.7280 C.2   400  GLU400      0.3649
    151  OE1       23.6990   25.8390   39.5900 O.co2 400  GLU400     -0.2457
    152  OE2       25.8480   26.2550   39.2830 O.co2 400  GLU400     -0.2457
    153  N         33.4850   31.5030   40.1590 N.3   403  PHE403     -0.1241
    154  CA        34.6810   31.3200   39.3450 C.3   403  PHE403      0.1605
    155  C         35.4490   32.6120   39.1030 C.2   403  PHE403      0.2264
    156  O         34.8740   33.6980   39.0690 O.2   403  PHE403     -0.2867
    157  CB        34.3220   30.7120   37.9790 C.3   403  PHE403      0.0534
    158  CG        33.5220   29.4500   38.0640 C.ar  403  PHE403     -0.0203
    159  CD1       32.1940   29.4210   37.6330 C.ar  403  PHE403     -0.0042
    160  CD2       34.0880   28.2880   38.5770 C.ar  403  PHE403     -0.0042
    161  CE1       31.4400   28.2530   37.7090 C.ar  403  PHE403     -0.0003
    162  CE2       33.3490   27.1120   38.6620 C.ar  403  PHE403     -0.0003
    163  CZ        32.0150   27.0960   38.2240 C.ar  403  PHE403     -0.0000
@<TRIPOS>BOND
     1    46    47    1
     2    51    50    1
     3    50    47    1
     4    47    48    1
     5    49    48    2
     6    48    52   am
     7    30    29    1
     8   138   137    2
     9    31    29    1
    10    58    59    2
    11    58    57    1
    12    29    28    2
    13    52    53    1
    14    62    60    1
    15    60    57    1
    16    60    61    1
    17     1     2    1
    18   137   136    1
    19    57    56    1
    20    56    54   am
    21   135   136    1
    22    28    27    1
    23    53    54    1
    24    54    55    2
    25   136   139    1
    26    27    26    1
    27     2     5    1
    28     2     3    1
    29     5     6    1
    30    63    64    1
    31    65    64    1
    32    65    66    2
    33   139   140    1
    34     3     4    2
    35     3     7   am
    36    26    25    1
    37   140   141    1
    38    64    67    1
    39    25    22    1
    40    13     7    1
    41    13    12    1
    42     7     8    1
    43    67    68    1
    44    38    40   ar
    45    38    37   ar
    46   125   124    1
    47   126   124    1
    48   141   142    1
    49    12    11    1
    50   142   143    1
    51    40    41   ar
    52    32    33    1
    53    92    93    1
    54    92    91    1
    55    22    23    1
    56    22    21    1
    57    24    23    2
    58    93    94    2
    59     8    11    1
    60     8     9    1
    61    84    83    2
    62    36    37    1
    63    36    33    1
    64   124   121    1
    65   123   122    2
    66    37    39   ar
    67   121   122    1
    68   121   120    1
    69    21    16   am
    70    33    34    1
    71    34    35    2
    72    80    79    1
    73     9    10    2
    74     9    14   am
    75   122   127   am
    76    91    83   am
    77    83    82    1
    78    41    39   ar
    79    41    43   ar
    80    14    15    1
    81    19    18    1
    82    39    42   ar
    83    79    78   ar
    84    79    77   ar
    85    78    76   ar
    86    16    15    1
    87    16    17    2
    88   118   117   ar
    89    43    45   ar
    90   127   128    1
    91    15    18    1
    92    82    85    1
    93    82    81    1
    94    18    20    1
    95    85    86    1
    96   119   117   ar
    97   117   116    1
    98   128   129    1
    99   128   131    1
   100    42    44   ar
   101    77    75   ar
   102    76    74   ar
   103   130   129    2
   104    45    44   ar
   105   113   114    1
   106   113   116    1
   107   113   112    1
   108    81    71   am
   109   114   115    2
   110   131   132    1
   111    75    74   ar
   112    74    73    1
   113    86    87   ar
   114    86    88   ar
   115    72    71    2
   116   159   161   ar
   117   159   158   ar
   118   161   163   ar
   119    71    70    1
   120   132   133    1
   121   157   158    1
   122   157   154    1
   123   134   133    1
   124   158   160   ar
   125    87    89   ar
   126   163   162   ar
   127    88    90   ar
   128   160   162   ar
   129    73    70    1
   130   111   109   am
   131    70    69    1
   132   156   155    2
   133   110   109    2
   134   155   154    1
   135   152   150   ar
   136    89    90   ar
   137   154   153    1
   138   109   108    1
   139   151   150   ar
   140   150   149    1
   141   149   148    1
   142   100   101    1
   143   100    99    1
   144   108   105    1
   145   102   101   ar
   146   101   103   ar
   147   148   145    1
   148    96    99    1
   149    96    95    1
   150    96    97    1
   151   105   104    1
   152   105   106    1
   153   145   146    1
   154   145   144    1
   155    97    98    2
   156   146   147    2
   157   107   106    2
