@<TRIPOS>MOLECULE
tmp/2hp3B04.pdb
 97 95 0 0 0
SMALL
GASTEIGER

@<TRIPOS>ATOM
      1  N          9.7500    3.3680   23.2000 N.3    94  PRO94      -0.2102
      2  CA         8.3810    2.8350   23.2370 C.3    94  PRO94       0.1504
      3  C          8.0730    1.8380   24.3390 C.2    94  PRO94       0.2576
      4  O          6.9210    1.7480   24.7730 O.2    94  PRO94      -0.2718
      5  CB         8.2280    2.1720   21.8780 C.3    94  PRO94       0.0282
      6  CG         9.6060    2.0000   21.3540 C.3    94  PRO94       0.0208
      7  CD        10.3580    3.1860   21.8720 C.3    94  PRO94       0.0893
      8  N          9.1050    1.1110   24.7630 N.am   95  VAL95      -0.1966
      9  CA         8.9220    0.0310   25.7230 C.3    95  VAL95       0.1727
     10  C          8.6560    0.5950   27.1150 C.2    95  VAL95       0.2616
     11  O          8.0530   -0.0620   27.9480 O.2    95  VAL95      -0.2715
     12  CB        10.1100   -0.9350   25.6990 C.3    95  VAL95       0.0290
     13  CG1       11.3960   -0.2310   26.1300 C.3    95  VAL95       0.0023
     14  CG2        9.8140   -2.1770   26.5410 C.3    95  VAL95       0.0023
     15  N          9.0030    1.8560   27.3130 N.am   96  MET96      -0.1963
     16  CA         8.7590    2.5460   28.5640 C.3    96  MET96       0.1736
     17  C          7.6130    3.5740   28.4480 C.2    96  MET96       0.2616
     18  O          7.1110    4.0570   29.4520 O.2    96  MET96      -0.2715
     19  CB        10.0500    3.2740   28.9200 C.3    96  MET96       0.0427
     20  CG         9.9560    4.3040   29.9900 C.3    96  MET96       0.0599
     21  SD        11.5820    5.0050   30.0170 S.3    96  MET96      -0.1393
     22  CE        11.2600    6.5180   29.4580 C.3    96  MET96       0.0692
     23  N          7.2350    3.9100   27.2200 N.am   97  ARG97      -0.1977
     24  CA         6.3930    5.0630   26.9130 C.3    97  ARG97       0.1597
     25  C          6.8930    6.3100   27.6230 C.2    97  ARG97       0.2287
     26  O          6.1860    6.9630   28.3960 O.2    97  ARG97      -0.2864
     27  CB         4.8920    4.7900   27.1670 C.3    97  ARG97       0.0334
     28  CG         4.0600    5.8450   26.4890 C.3    97  ARG97       0.0492
     29  CD         2.5840    5.5610   26.3590 C.3    97  ARG97       0.2205
     30  NE         1.9610    6.6760   25.6590 N.pl3  97  ARG97      -0.0865
     31  CZ         0.6630    6.7570   25.3720 C.cat  97  ARG97       0.5346
     32  NH1       -0.1740    5.7730   25.7260 N.pl3  97  ARG97       0.1354
     33  NH2        0.2110    7.8180   24.7060 N.pl3  97  ARG97       0.1354
     34  N          9.4850   -1.2610   32.0920 N.3   137  GLY137     -0.1210
     35  CA         8.4450   -0.8870   31.1440 C.3   137  GLY137      0.1956
     36  C          7.6400   -2.0840   30.6610 C.2   137  GLY137      0.2611
     37  O          6.3960   -2.0290   30.5950 O.2   137  GLY137     -0.2717
     38  N          8.3420   -3.1530   30.3230 N.am  138  ARG138     -0.1979
     39  CA         7.6610   -4.3640   29.8770 C.3   138  ARG138      0.1597
     40  C          6.7840   -4.9330   31.0020 C.2   138  ARG138      0.2287
     41  O          5.6510   -5.3510   30.7550 O.2   138  ARG138     -0.2864
     42  CB         8.6640   -5.3840   29.3290 C.3   138  ARG138      0.0334
     43  CG         9.2450   -4.9780   27.9810 C.3   138  ARG138      0.0492
     44  CD        10.0560   -6.0860   27.3330 C.3   138  ARG138      0.2205
     45  NE        11.5070   -5.9510   27.4810 N.pl3 138  ARG138     -0.0865
     46  CZ        12.3240   -5.3340   26.6200 C.cat 138  ARG138      0.5346
     47  NH1       11.8660   -4.7210   25.5230 N.pl3 138  ARG138      0.1354
     48  NH2       13.6310   -5.3160   26.8610 N.pl3 138  ARG138      0.1354
     49  N          3.4680   -2.4330   31.5890 N.3   141  GLY141     -0.1210
     50  CA         2.5490   -2.4240   30.4690 C.3   141  GLY141      0.1956
     51  C          1.9370   -1.0580   30.2290 C.2   141  GLY141      0.2611
     52  O          2.4810   -0.0220   30.6730 O.2   141  GLY141     -0.2717
     53  N          0.8010   -1.0630   29.5410 N.am  142  LYS142     -0.1979
     54  CA         0.2160    0.1910   29.0110 C.3   142  LYS142      0.1596
     55  C         -0.5640    0.9820   30.0370 C.2   142  LYS142      0.2287
     56  O         -0.7330    2.2120   29.8700 O.2   142  LYS142     -0.2864
     57  CB        -0.6930   -0.0970   27.8120 C.3   142  LYS142      0.0298
     58  CG        -0.0120   -0.8120   26.6470 C.3   142  LYS142      0.0038
     59  CD        -1.0420   -1.2740   25.6120 C.3   142  LYS142      0.0206
     60  CE        -0.4200   -1.6520   24.2810 C.3   142  LYS142      0.1093
     61  NZ        -1.4940   -2.0010   23.2760 N.3   142  LYS142     -0.1314
     62  N          0.7440    4.7050   32.1360 N.3   145  TYR145     -0.1241
     63  CA         0.6080    6.0010   31.4440 C.3   145  TYR145      0.1605
     64  C         -0.8720    6.3910   31.3760 C.2   145  TYR145      0.2264
     65  O         -1.2610    7.5470   31.6200 O.2   145  TYR145     -0.2867
     66  CB         1.1460    5.8920   30.0270 C.3   145  TYR145      0.0534
     67  CG         1.2760    7.2200   29.2530 C.ar  145  TYR145     -0.0201
     68  CD1        0.1740    7.8310   28.6760 C.ar  145  TYR145     -0.0009
     69  CD2        2.5070    7.8170   29.0770 C.ar  145  TYR145     -0.0009
     70  CE1        0.3140    9.0180   27.9580 C.ar  145  TYR145      0.0417
     71  CE2        2.6640    8.9890   28.3590 C.ar  145  TYR145      0.0417
     72  CZ         1.5690    9.5870   27.8050 C.ar  145  TYR145      0.1957
     73  OH         1.7430   10.7460   27.0850 O.3   145  TYR145     -0.2866
     74  N          5.6650    8.0280   32.7990 N.3   151  PRO151     -0.2116
     75  CA         6.6760    6.9750   32.9840 C.3   151  PRO151      0.1372
     76  C          8.0940    7.4590   32.7890 C.2   151  PRO151      0.2244
     77  O          9.0200    6.9260   33.3680 O.2   151  PRO151     -0.2868
     78  CB         6.2590    5.9240   31.9470 C.3   151  PRO151      0.0268
     79  CG         4.8020    6.1850   31.7090 C.3   151  PRO151      0.0207
     80  CD         4.7860    7.6950   31.6740 C.3   151  PRO151      0.0892
     81  N         -2.4250    2.5000   21.8190 N.3   371  PHE371     -0.1227
     82  CA        -1.1490    2.7350   21.1780 C.3   371  PHE371      0.1736
     83  C         -0.5240    3.9310   21.8790 C.2   371  PHE371      0.2596
     84  O         -1.0370    4.3890   22.9160 O.2   371  PHE371     -0.2718
     85  CB        -1.3550    3.0380   19.6940 C.3   371  PHE371      0.0547
     86  CG        -1.9030    1.8880   18.9240 C.ar  371  PHE371     -0.0202
     87  CD1       -3.2850    1.5930   18.9800 C.ar  371  PHE371     -0.0042
     88  CD2       -1.0760    1.0860   18.1780 C.ar  371  PHE371     -0.0042
     89  CE1       -3.8070    0.5290   18.2880 C.ar  371  PHE371     -0.0003
     90  CE2       -1.5940   -0.0070   17.4890 C.ar  371  PHE371     -0.0003
     91  CZ        -2.9740   -0.2620   17.5310 C.ar  371  PHE371     -0.0000
     92  N          0.5630    4.4340   21.3070 N.am  372  SER372     -0.1952
     93  CA         1.2100    5.6210   21.8050 C.3   372  SER372      0.1924
     94  C          1.6990    6.4740   20.6370 C.2   372  SER372      0.2314
     95  O          1.6340    6.0650   19.4940 O.2   372  SER372     -0.2863
     96  CB         2.4010    5.2180   22.6440 C.3   372  SER372      0.2116
     97  OG         3.3490    4.5380   21.8420 O.3   372  SER372     -0.2180
@<TRIPOS>BOND
     1    90    91   ar
     2    90    88   ar
     3    91    89   ar
     4    88    86   ar
     5    89    87   ar
     6    86    87   ar
     7    86    85    1
     8    95    94    2
     9    85    82    1
    10    94    93    1
    11    82    81    1
    12    82    83    1
    13    92    93    1
    14    92    83   am
    15     6     7    1
    16     6     5    1
    17    93    96    1
    18    97    96    1
    19     7     1    1
    20     5     2    1
    21    83    84    2
    22     1     2    1
    23     2     3    1
    24    61    60    1
    25    60    59    1
    26     3     8   am
    27     3     4    2
    28    33    31    1
    29     8     9    1
    30    31    30    2
    31    31    32    1
    32    47    46    1
    33    59    58    1
    34    30    29    1
    35    12     9    1
    36    12    13    1
    37    12    14    1
    38     9    10    1
    39    29    28    1
    40    28    27    1
    41    46    48    1
    42    46    45    2
    43    58    57    1
    44    24    27    1
    45    24    23    1
    46    24    25    1
    47    73    72    1
    48    10    15   am
    49    10    11    2
    50    23    17   am
    51    15    16    1
    52    44    45    1
    53    44    43    1
    54    25    26    2
    55    72    70   ar
    56    72    71   ar
    57    57    54    1
    58    70    68   ar
    59    43    42    1
    60    71    69   ar
    61    17    16    1
    62    17    18    2
    63    16    19    1
    64    68    67   ar
    65    19    20    1
    66    54    53    1
    67    54    55    1
    68    69    67   ar
    69    67    66    1
    70    42    39    1
    71    22    21    1
    72    53    51   am
    73    56    55    2
    74    39    38    1
    75    39    40    1
    76    20    21    1
    77    66    63    1
    78    51    50    1
    79    51    52    2
    80    38    36   am
    81    50    49    1
    82    37    36    2
    83    36    35    1
    84    41    40    2
    85    35    34    1
    86    64    63    1
    87    64    65    2
    88    63    62    1
    89    80    79    1
    90    80    74    1
    91    79    78    1
    92    78    75    1
    93    76    75    1
    94    76    77    2
    95    74    75    1
