@<TRIPOS>MOLECULE
tmp/2hp3B01.pdb
 111 108 0 0 0
SMALL
GASTEIGER

@<TRIPOS>ATOM
      1  N         15.3120   28.4600   28.1530 N.3    43  GLU43      -0.1245
      2  CA        13.9100   28.3910   28.6010 C.3    43  GLU43       0.1567
      3  C         13.8270   28.8420   30.0540 C.2    43  GLU43       0.2260
      4  O         14.7950   28.6830   30.8040 O.2    43  GLU43      -0.2867
      5  CB        13.3740   26.9610   28.4780 C.3    43  GLU43       0.0388
      6  CG        13.1790   26.5460   27.0450 C.3    43  GLU43       0.1160
      7  CD        12.0990   27.3830   26.3600 C.2    43  GLU43       0.3649
      8  OE1       10.9790   27.4310   26.9010 O.co2  43  GLU43      -0.2457
      9  OE2       12.3870   27.9880   25.3090 O.co2  43  GLU43      -0.2457
     10  N         15.0980   18.0620   28.8430 N.3    85  HIS85      -0.1226
     11  CA        13.6730   17.9350   28.5090 C.3    85  HIS85       0.1752
     12  C         12.9450   19.2670   28.2740 C.2    85  HIS85       0.2596
     13  O         11.7410   19.2470   27.9470 O.2    85  HIS85      -0.2718
     14  CB        12.9990   17.1270   29.6470 C.3    85  HIS85       0.0759
     15  CG        11.7070   16.4230   29.2760 C.ar   85  HIS85       0.0818
     16  ND1       11.5790   15.6200   28.1610 N.ar   85  HIS85      -0.2268
     17  CD2       10.5190   16.3190   29.9350 C.ar   85  HIS85       0.1154
     18  CE1       10.3480   15.1230   28.1050 C.ar   85  HIS85       0.1986
     19  NE2        9.6950   15.5050   29.1870 N.ar   85  HIS85      -0.2212
     20  N         13.6370   20.4070   28.3600 N.am   86  ALA86      -0.1966
     21  CA        12.9820   21.7300   28.4490 C.3    86  ALA86       0.1728
     22  C         12.1250   22.1010   27.2240 C.2    86  ALA86       0.2616
     23  O         11.1390   22.8270   27.3660 O.2    86  ALA86      -0.2715
     24  CB        14.0120   22.8050   28.7150 C.3    86  ALA86       0.0334
     25  N         12.5120   21.6240   26.0270 N.am   87  ILE87      -0.1963
     26  CA        11.7680   21.9180   24.7970 C.3    87  ILE87       0.1727
     27  C         11.2300   20.6600   24.1040 C.2    87  ILE87       0.2616
     28  O         10.8720   20.6880   22.9230 O.2    87  ILE87      -0.2715
     29  CB        12.6280   22.7470   23.8100 C.3    87  ILE87       0.0290
     30  CG1       13.9170   22.0090   23.4060 C.3    87  ILE87       0.0022
     31  CG2       12.9810   24.0990   24.4210 C.3    87  ILE87       0.0023
     32  CD1       14.4950   22.5340   22.1350 C.3    87  ILE87       0.0001
     33  N         11.1810   19.5570   24.8500 N.am   88  ASP88      -0.1971
     34  CA        10.6100   18.3040   24.3780 C.3    88  ASP88       0.1709
     35  C         11.2490   17.7930   23.0600 C.2    88  ASP88       0.2293
     36  O         10.5470   17.3700   22.1250 O.2    88  ASP88      -0.2864
     37  CB         9.0900   18.4760   24.2270 C.3    88  ASP88       0.1436
     38  CG         8.3140   17.2930   24.7280 C.2    88  ASP88       0.3671
     39  OD1        8.3980   16.9960   25.9340 O.co2  88  ASP88      -0.2456
     40  OD2        7.5990   16.6420   23.9340 O.co2  88  ASP88      -0.2456
     41  N          2.5920   20.5770   29.4610 N.3   194  GLY194     -0.1210
     42  CA         2.3260   21.9620   29.0400 C.3   194  GLY194      0.1956
     43  C          2.6200   23.0300   30.0730 C.2   194  GLY194      0.2613
     44  O          2.2020   24.1890   29.9050 O.2   194  GLY194     -0.2717
     45  N          3.3770   22.6610   31.1160 N.am  195  THR195     -0.1938
     46  CA         3.8790   23.5640   32.1430 C.3   195  THR195      0.2028
     47  C          5.3660   23.2760   32.3310 C.2   195  THR195      0.2642
     48  O          5.8770   22.2640   31.8470 O.2   195  THR195     -0.2714
     49  CB         3.1540   23.4250   33.5160 C.3   195  THR195      0.1808
     50  OG1        3.5970   22.2460   34.2040 O.3   195  THR195     -0.2208
     51  CG2        1.6360   23.4020   33.3790 C.3   195  THR195      0.0379
     52  N          6.0500   24.1430   33.0650 N.am  196  MET196     -0.1976
     53  CA         7.4890   23.9580   33.3210 C.3   196  MET196      0.1605
     54  C          7.8170   22.7700   34.2180 C.2   196  MET196      0.2287
     55  O          8.9670   22.3600   34.3250 O.2   196  MET196     -0.2864
     56  CB         8.0960   25.2440   33.8690 C.3   196  MET196      0.0413
     57  CG         8.0390   26.3370   32.8910 C.3   196  MET196      0.0598
     58  SD         8.4510   27.9040   33.6550 S.3   196  MET196     -0.1393
     59  CE         7.4250   28.9750   32.6400 C.3   196  MET196      0.0692
     60  N          6.8440   19.6810   33.6730 N.3   198  LYS198     -0.1231
     61  CA         7.2210   18.5010   32.8590 C.3   198  LYS198      0.1678
     62  C          8.7550   18.2860   32.7780 C.2   198  LYS198      0.2434
     63  O          9.2540   17.1940   33.1060 O.2   198  LYS198     -0.2733
     64  CB         6.5670   18.5360   31.4900 C.3   198  LYS198      0.0284
     65  CG         6.7460   17.2320   30.7360 C.3   198  LYS198      0.0035
     66  CD         5.9020   17.2060   29.4650 C.3   198  LYS198      0.0206
     67  CE         5.8510   15.8310   28.8340 C.3   198  LYS198      0.1093
     68  NZ         7.0500   15.5050   28.0280 N.3   198  LYS198     -0.1314
     69  N          9.5290   19.3080   32.3850 N.am  199  PRO199     -0.2729
     70  CA        10.9930   19.0740   32.4690 C.3   199  PRO199      0.1401
     71  C         11.5200   18.9310   33.8980 C.2   199  PRO199      0.2269
     72  O         12.5790   18.3470   34.0890 O.2   199  PRO199     -0.2865
     73  CB        11.5820   20.2950   31.7670 C.3   199  PRO199      0.0296
     74  CG        10.5510   21.3440   31.8780 C.3   199  PRO199      0.0237
     75  CD         9.2340   20.6110   31.7620 C.3   199  PRO199      0.0939
     76  N          4.5300   28.6950   25.3190 N.3   318  THR318     -0.1203
     77  CA         5.4740   27.9230   24.5600 C.3   318  THR318      0.1994
     78  C          5.3320   26.4480   24.9710 C.2   318  THR318      0.2617
     79  O          5.3700   25.5660   24.1320 O.2   318  THR318     -0.2717
     80  CB         6.9390   28.4790   24.7180 C.3   318  THR318      0.1784
     81  OG1        7.8300   27.8140   23.8150 O.3   318  THR318     -0.2211
     82  CG2        7.4570   28.3350   26.1370 C.3   318  THR318      0.0376
     83  N          5.1160   26.1980   26.2520 N.am  319  GLU319     -0.1979
     84  CA         5.0710   24.8090   26.7240 C.3   319  GLU319      0.1602
     85  C          3.8060   24.1320   26.2550 C.2   319  GLU319      0.2287
     86  O          3.7930   22.9490   25.8730 O.2   319  GLU319     -0.2864
     87  CB         5.1700   24.7780   28.2540 C.3   319  GLU319      0.0415
     88  CG         6.4500   25.4130   28.8480 C.3   319  GLU319      0.1163
     89  CD         6.3710   26.9330   29.0540 C.2   319  GLU319      0.3649
     90  OE1        5.2930   27.5280   28.8690 O.co2 319  GLU319     -0.2457
     91  OE2        7.3810   27.5530   29.3970 O.co2 319  GLU319     -0.2457
     92  N          3.6470   22.6750   22.5400 N.3   322  LYS322     -0.1231
     93  CA         4.3070   21.4040   22.2300 C.3   322  LYS322      0.1693
     94  C          3.3560   20.2150   22.4150 C.2   322  LYS322      0.2592
     95  O          3.6060   19.1180   21.9020 O.2   322  LYS322     -0.2718
     96  CB         5.5750   21.2560   23.0560 C.3   322  LYS322      0.0285
     97  CG         6.6640   22.2110   22.5800 C.3   322  LYS322      0.0035
     98  CD         7.8950   22.1330   23.4120 C.3   322  LYS322      0.0206
     99  CE         8.8630   23.2620   23.0520 C.3   322  LYS322      0.1093
    100  NZ         9.5860   22.9650   21.7830 N.3   322  LYS322     -0.1314
    101  N          2.2520   20.4540   23.1160 N.am  323  PHE323     -0.1976
    102  CA         1.1940   19.4860   23.3700 C.3   323  PHE323      0.1639
    103  C         -0.1030   19.8480   22.6770 C.2   323  PHE323      0.2290
    104  O         -1.1950   19.5840   23.1880 O.2   323  PHE323     -0.2864
    105  CB         1.0620   19.2890   24.8850 C.3   323  PHE323      0.0560
    106  CG         2.3410   18.8120   25.4720 C.ar  323  PHE323     -0.0200
    107  CD1        3.2910   19.7200   25.8990 C.ar  323  PHE323     -0.0042
    108  CD2        2.6590   17.4660   25.4430 C.ar  323  PHE323     -0.0042
    109  CE1        4.5230   19.3080   26.3250 C.ar  323  PHE323     -0.0003
    110  CE2        3.9020   17.0380   25.8710 C.ar  323  PHE323     -0.0003
    111  CZ         4.8310   17.9710   26.3110 C.ar  323  PHE323     -0.0000
@<TRIPOS>BOND
     1   100    99    1
     2    95    94    2
     3    36    35    2
     4    32    30    1
     5    93    94    1
     6    93    92    1
     7    93    96    1
     8    94   101   am
     9    97    96    1
    10    97    98    1
    11   103   104    2
    12   103   102    1
    13    28    27    2
    14    99    98    1
    15    35    34    1
    16   101   102    1
    17   102   105    1
    18    30    29    1
    19    29    31    1
    20    29    26    1
    21    81    80    1
    22    40    38   ar
    23    27    26    1
    24    27    33   am
    25    79    78    2
    26    37    34    1
    27    37    38    1
    28    34    33    1
    29    77    80    1
    30    77    78    1
    31    77    76    1
    32    80    82    1
    33    38    39   ar
    34    26    25    1
    35   105   106    1
    36    78    83   am
    37     9     7   ar
    38   108   106   ar
    39   108   110   ar
    40   106   107   ar
    41   110   111   ar
    42    86    85    2
    43   107   109   ar
    44    25    22   am
    45    83    84    1
    46    85    84    1
    47   111   109   ar
    48     7     8   ar
    49     7     6    1
    50    84    87    1
    51     6     5    1
    52    22    23    2
    53    22    21    1
    54    13    12    2
    55    68    67    1
    56    18    16   ar
    57    18    19   ar
    58     1     2    1
    59    16    15   ar
    60    87    88    1
    61    12    20   am
    62    12    11    1
    63    20    21    1
    64    21    24    1
    65     5     2    1
    66    11    10    1
    67    11    14    1
    68     2     3    1
    69    67    66    1
    70    88    89    1
    71    90    89   ar
    72    42    41    1
    73    42    43    1
    74    89    91   ar
    75    19    17   ar
    76    15    14    1
    77    15    17   ar
    78    66    65    1
    79    44    43    2
    80     3     4    2
    81    43    45   am
    82    65    64    1
    83    45    46    1
    84    64    61    1
    85    75    74    1
    86    75    69    1
    87    73    74    1
    88    73    70    1
    89    48    47    2
    90    46    47    1
    91    46    49    1
    92    47    52   am
    93    69    70    1
    94    69    62   am
    95    70    71    1
    96    59    58    1
    97    62    61    1
    98    62    63    2
    99    61    60    1
   100    57    58    1
   101    57    56    1
   102    52    53    1
   103    53    56    1
   104    53    54    1
   105    51    49    1
   106    49    50    1
   107    71    72    2
   108    54    55    2
