@<TRIPOS>MOLECULE
tmp/2hp3B00.pdb
 115 114 0 0 0
SMALL
GASTEIGER

@<TRIPOS>ATOM
      1  N         12.5540    9.3250   22.7060 N.3    92  SER92      -0.1202
      2  CA        11.5170    8.5220   23.3030 C.3    92  SER92       0.2020
      3  C         11.8990    7.0510   23.2110 C.2    92  SER92       0.2619
      4  O         12.8560    6.6970   22.5160 O.2    92  SER92      -0.2717
      5  CB        10.2040    8.7630   22.5970 C.3    92  SER92       0.2103
      6  OG         9.1620    8.2870   23.4080 O.3    92  SER92      -0.2182
      7  N         11.1670    6.2030   23.9120 N.am   93  PHE93      -0.1962
      8  CA        11.5310    4.7860   24.0530 C.3    93  PHE93       0.1756
      9  C         10.2480    4.0100   24.2590 C.2    93  PHE93       0.2461
     10  O          9.6660    4.0340   25.3290 O.2    93  PHE93      -0.2730
     11  CB        12.4750    4.6550   25.2540 C.3    93  PHE93       0.0574
     12  CG        13.1340    3.2920   25.4080 C.ar   93  PHE93      -0.0200
     13  CD1       13.6230    2.6100   24.3180 C.ar   93  PHE93      -0.0042
     14  CD2       13.3130    2.7580   26.6820 C.ar   93  PHE93      -0.0042
     15  CE1       14.2290    1.3820   24.4780 C.ar   93  PHE93      -0.0003
     16  CE2       13.9200    1.5600   26.8550 C.ar   93  PHE93      -0.0003
     17  CZ        14.4030    0.8660   25.7420 C.ar   93  PHE93      -0.0000
     18  N          9.7500    3.3680   23.2000 N.am   94  PRO94      -0.2727
     19  CA         8.3810    2.8350   23.2370 C.3    94  PRO94       0.1402
     20  C          8.0730    1.8380   24.3390 C.2    94  PRO94       0.2269
     21  O          6.9210    1.7480   24.7730 O.2    94  PRO94      -0.2865
     22  CB         8.2280    2.1720   21.8780 C.3    94  PRO94       0.0296
     23  CG         9.6060    2.0000   21.3540 C.3    94  PRO94       0.0237
     24  CD        10.3580    3.1860   21.8720 C.3    94  PRO94       0.0939
     25  N          7.2350    3.9100   27.2200 N.3    97  ARG97      -0.1231
     26  CA         6.3930    5.0630   26.9130 C.3    97  ARG97       0.1694
     27  C          6.8930    6.3100   27.6230 C.2    97  ARG97       0.2593
     28  O          6.1860    6.9630   28.3960 O.2    97  ARG97      -0.2718
     29  CB         4.8920    4.7900   27.1670 C.3    97  ARG97       0.0321
     30  CG         4.0600    5.8450   26.4890 C.3    97  ARG97       0.0489
     31  CD         2.5840    5.5610   26.3590 C.3    97  ARG97       0.2205
     32  NE         1.9610    6.6760   25.6590 N.pl3  97  ARG97      -0.0865
     33  CZ         0.6630    6.7570   25.3720 C.cat  97  ARG97       0.5346
     34  NH1       -0.1740    5.7730   25.7260 N.pl3  97  ARG97       0.1354
     35  NH2        0.2110    7.8180   24.7060 N.pl3  97  ARG97       0.1354
     36  N          8.1450    6.6370   27.3520 N.am   98  GLY98      -0.1942
     37  CA         8.7300    7.8570   27.9050 C.3    98  GLY98       0.2014
     38  C         10.1380    8.1460   27.4150 C.2    98  GLY98       0.2638
     39  O         10.6290    7.5370   26.4640 O.2    98  GLY98      -0.2714
     40  N         10.7920    9.0860   28.0990 N.am   99  HIS99      -0.1973
     41  CA        12.0100    9.7060   27.6480 C.3    99  HIS99       0.1656
     42  C         13.1030    9.3780   28.6510 C.2    99  HIS99       0.2291
     43  O         13.2440   10.0710   29.6380 O.2    99  HIS99      -0.2864
     44  CB        11.7990   11.2420   27.6160 C.3    99  HIS99       0.0771
     45  CG        10.6610   11.6720   26.7460 C.ar   99  HIS99       0.0820
     46  ND1        9.4140   11.9630   27.2360 N.ar   99  HIS99      -0.2267
     47  CD2       10.5920   11.8420   25.4070 C.ar   99  HIS99       0.1154
     48  CE1        8.6240   12.3170   26.2310 C.ar   99  HIS99       0.1986
     49  NE2        9.3150   12.2420   25.1100 N.ar   99  HIS99      -0.2212
     50  N          0.7440    4.7050   32.1360 N.3   145  TYR145     -0.1241
     51  CA         0.6080    6.0010   31.4440 C.3   145  TYR145      0.1605
     52  C         -0.8720    6.3910   31.3760 C.2   145  TYR145      0.2264
     53  O         -1.2610    7.5470   31.6200 O.2   145  TYR145     -0.2867
     54  CB         1.1460    5.8920   30.0270 C.3   145  TYR145      0.0534
     55  CG         1.2760    7.2200   29.2530 C.ar  145  TYR145     -0.0201
     56  CD1        0.1740    7.8310   28.6760 C.ar  145  TYR145     -0.0009
     57  CD2        2.5070    7.8170   29.0770 C.ar  145  TYR145     -0.0009
     58  CE1        0.3140    9.0180   27.9580 C.ar  145  TYR145      0.0417
     59  CE2        2.6640    8.9890   28.3590 C.ar  145  TYR145      0.0417
     60  CZ         1.5690    9.5870   27.8050 C.ar  145  TYR145      0.1957
     61  OH         1.7430   10.7460   27.0850 O.3   145  TYR145     -0.2866
     62  N          5.6660   17.0100   21.3430 N.3   271  CYS271     -0.1221
     63  CA         5.1760   15.6720   21.7110 C.3   271  CYS271      0.1808
     64  C          5.1700   14.7380   20.4970 C.2   271  CYS271      0.2601
     65  O          4.7730   15.1440   19.4010 O.2   271  CYS271     -0.2717
     66  CB         3.7660   15.8160   22.2800 C.3   271  CYS271      0.0970
     67  SG         3.0340   14.2780   22.8870 S.3   271  CYS271     -0.0800
     68  N          5.5750   13.4750   20.6900 N.am  272  TYR272     -0.1962
     69  CA         5.6080   12.4990   19.6010 C.3   272  TYR272      0.1771
     70  C          4.2850   12.2550   18.9360 C.2   272  TYR272      0.2619
     71  O          4.2790   11.8610   17.7980 O.2   272  TYR272     -0.2715
     72  CB         6.1320   11.1350   20.0470 C.3   272  TYR272      0.0574
     73  CG         7.4150   10.7640   19.3500 C.ar  272  TYR272     -0.0198
     74  CD1        7.4430   10.5020   17.9930 C.ar  272  TYR272     -0.0009
     75  CD2        8.6170   10.7060   20.0590 C.ar  272  TYR272     -0.0009
     76  CE1        8.6280   10.1500   17.3630 C.ar  272  TYR272      0.0417
     77  CE2        9.7920   10.3720   19.4360 C.ar  272  TYR272      0.0417
     78  CZ         9.8000   10.1030   18.0870 C.ar  272  TYR272      0.1957
     79  OH        10.9890    9.7890   17.4520 O.3   272  TYR272     -0.2866
     80  N          3.1740   12.4990   19.6370 N.am  273  ALA273     -0.1977
     81  CA         1.8600   12.3500   19.0290 C.3   273  ALA273      0.1597
     82  C          1.6380   13.3410   17.8750 C.2   273  ALA273      0.2287
     83  O          0.7180   13.1350   17.0810 O.2   273  ALA273     -0.2864
     84  CB         0.7660   12.4740   20.0650 C.3   273  ALA273      0.0319
     85  N         -3.5350    7.5540   22.2080 N.3   306  VAL306     -0.1245
     86  CA        -2.4450    8.3000   21.5610 C.3   306  VAL306      0.1561
     87  C         -2.6300    9.8060   21.8000 C.2   306  VAL306      0.2260
     88  O         -1.6540   10.5390   21.9700 O.2   306  VAL306     -0.2867
     89  CB        -2.3960    8.0550   20.0430 C.3   306  VAL306      0.0252
     90  CG1       -1.2630    8.8900   19.3770 C.3   306  VAL306      0.0019
     91  CG2       -2.1680    6.5450   19.7510 C.3   306  VAL306      0.0019
     92  N         -1.6980   12.9220   25.6600 N.3   309  PRO309     -0.2116
     93  CA        -0.8400   14.0220   26.0950 C.3   309  PRO309      0.1372
     94  C         -1.0930   15.3670   25.3990 C.2   309  PRO309      0.2244
     95  O         -0.5920   16.3730   25.8480 O.2   309  PRO309     -0.2868
     96  CB         0.5630   13.5130   25.7770 C.3   309  PRO309      0.0268
     97  CG         0.4010   12.6060   24.6370 C.3   309  PRO309      0.0207
     98  CD        -0.9430   11.9390   24.8520 C.3   309  PRO309      0.0892
     99  N          0.5630    4.4340   21.3070 N.3   372  SER372     -0.1202
    100  CA         1.2100    5.6210   21.8050 C.3   372  SER372      0.2020
    101  C          1.6990    6.4740   20.6370 C.2   372  SER372      0.2619
    102  O          1.6340    6.0650   19.4940 O.2   372  SER372     -0.2717
    103  CB         2.4010    5.2180   22.6440 C.3   372  SER372      0.2103
    104  OG         3.3490    4.5380   21.8420 O.3   372  SER372     -0.2182
    105  N          2.2300    7.6540   20.9240 N.am  373  GLY373     -0.1942
    106  CA         2.8020    8.4830   19.8700 C.3   373  GLY373      0.2014
    107  C          4.0010    7.8980   19.1210 C.2   373  GLY373      0.2639
    108  O          4.3130    8.3380   18.0030 O.2   373  GLY373     -0.2714
    109  N          4.6580    6.8810   19.6990 N.am  374  THR374     -0.1950
    110  CA         5.7900    6.2220   19.0420 C.3   374  THR374      0.1897
    111  C          5.4750    4.8620   18.4480 C.2   374  THR374      0.2313
    112  O          6.3690    4.1940   17.9380 O.2   374  THR374     -0.2863
    113  CB         6.9260    6.0110   20.0220 C.3   374  THR374      0.1794
    114  OG1        6.4310    5.3370   21.1940 O.3   374  THR374     -0.2208
    115  CG2        7.4930    7.3590   20.4080 C.3   374  THR374      0.0378
@<TRIPOS>BOND
     1    83    82    2
     2    76    74   ar
     3    76    78   ar
     4    79    78    1
     5    71    70    2
     6    82    81    1
     7   112   111    2
     8    74    73   ar
     9   108   107    2
    10    78    77   ar
    11   111   110    1
    12    70    69    1
    13    70    80   am
    14    81    80    1
    15    81    84    1
    16   110   109    1
    17   110   113    1
    18   107   109   am
    19   107   106    1
    20    73    72    1
    21    73    75   ar
    22    90    89    1
    23    65    64    2
    24    77    75   ar
    25   102   101    2
    26    69    72    1
    27    69    68    1
    28    91    89    1
    29   106   105    1
    30   113   115    1
    31   113   114    1
    32    89    86    1
    33    64    68   am
    34    64    63    1
    35   101   105   am
    36   101   100    1
    37    99   100    1
    38    62    63    1
    39    23    24    1
    40    23    22    1
    41    86    87    1
    42    86    85    1
    43    63    66    1
    44    87    88    2
    45   100   103    1
    46   104   103    1
    47    24    18    1
    48    22    19    1
    49    66    67    1
    50     4     3    2
    51     5     2    1
    52     5     6    1
    53     1     2    1
    54    18    19    1
    55    18     9   am
    56     3     2    1
    57     3     7   am
    58    19    20    1
    59     7     8    1
    60     8     9    1
    61     8    11    1
    62     9    10    2
    63    13    15   ar
    64    13    12   ar
    65    20    21    2
    66    15    17   ar
    67    97    98    1
    68    97    96    1
    69    35    33    1
    70    98    92    1
    71    49    47   ar
    72    49    48   ar
    73    11    12    1
    74    33    32    2
    75    33    34    1
    76    94    95    2
    77    94    93    1
    78    47    45   ar
    79    12    14   ar
    80    32    31    1
    81    92    93    1
    82    17    16   ar
    83    96    93    1
    84    48    46   ar
    85    31    30    1
    86    39    38    2
    87    30    29    1
    88    14    16   ar
    89    45    46   ar
    90    45    44    1
    91    26    29    1
    92    26    25    1
    93    26    27    1
    94    61    60    1
    95    36    27   am
    96    36    37    1
    97    38    37    1
    98    38    40   am
    99    44    41    1
   100    27    28    2
   101    41    40    1
   102    41    42    1
   103    60    58   ar
   104    60    59   ar
   105    58    56   ar
   106    59    57   ar
   107    42    43    2
   108    56    55   ar
   109    57    55   ar
   110    55    54    1
   111    54    51    1
   112    52    51    1
   113    52    53    2
   114    51    50    1
