@<TRIPOS>MOLECULE
tmp/2hpcB00.pdb
 124 118 0 0 0
SMALL
GASTEIGER

@<TRIPOS>ATOM
      1  N         -2.3740   27.3660    2.4230 N.3   210  LEU210     -0.1245
      2  CA        -3.6000   28.0550    2.0460 C.3   210  LEU210      0.1561
      3  C         -3.3890   29.5750    1.9720 C.2   210  LEU210      0.2260
      4  O         -2.2890   30.0440    1.6690 O.2   210  LEU210     -0.2867
      5  CB        -4.7260   27.7100    3.0300 C.3   210  LEU210      0.0270
      6  CG        -5.1500   26.2440    3.0220 C.3   210  LEU210      0.0019
      7  CD1       -6.5140   26.1090    3.6820 C.3   210  LEU210      0.0001
      8  CD2       -5.1990   25.7370    1.5910 C.3   210  LEU210      0.0001
      9  N         -9.0650   32.0030    3.6880 N.3   214  ASN214     -0.1240
     10  CA        -9.0610   30.5510    3.6790 C.3   214  ASN214      0.1653
     11  C         -8.1950   30.0080    4.8260 C.2   214  ASN214      0.2266
     12  O         -8.6240   29.1180    5.5550 O.2   214  ASN214     -0.2867
     13  CB        -8.6060   30.0220    2.3080 C.3   214  ASN214      0.1155
     14  CG        -9.7590   29.9380    1.3050 C.2   214  ASN214      0.2627
     15  OD1      -10.7390   29.2300    1.5450 O.2   214  ASN214     -0.2716
     16  ND2       -9.6500   30.6660    0.1930 N.am  214  ASN214     -0.0877
     17  N         -9.3570   30.9010    8.8020 N.3   217  MET217     -0.1230
     18  CA       -10.5430   30.2470    9.3120 C.3   217  MET217      0.1702
     19  C        -10.2170   28.7730    9.6000 C.2   217  MET217      0.2593
     20  O        -11.0910   27.9060    9.6300 O.2   217  MET217     -0.2718
     21  CB       -11.7530   30.4230    8.3680 C.3   217  MET217      0.0401
     22  CG       -11.7110   29.7660    6.9950 C.3   217  MET217      0.0596
     23  SD       -13.3840   29.7990    6.2330 S.3   217  MET217     -0.1393
     24  CE       -13.0570   30.4540    4.6100 C.3   217  MET217      0.0692
     25  N         -8.9300   28.5090    9.8150 N.am  218  THR218     -0.1953
     26  CA        -8.4440   27.1810   10.1650 C.3   218  THR218      0.1897
     27  C         -7.5450   27.4170   11.3720 C.2   218  THR218      0.2313
     28  O         -6.5690   26.7030   11.6150 O.2   218  THR218     -0.2863
     29  CB        -7.6340   26.5200    9.0320 C.3   218  THR218      0.1794
     30  OG1       -6.3390   27.1250    8.9270 O.3   218  THR218     -0.2208
     31  CG2       -8.3770   26.6480    7.7260 C.3   218  THR218      0.0378
     32  N        -17.5100   28.6760   12.0620 N.3   235  TRP235     -0.1241
     33  CA       -18.3800   28.6890   10.8930 C.3   235  TRP235      0.1605
     34  C        -19.7340   29.1260   11.4380 C.2   235  TRP235      0.2264
     35  O        -20.2370   28.5540   12.3990 O.2   235  TRP235     -0.2867
     36  CB       -18.4500   27.2820   10.2970 C.3   235  TRP235      0.0550
     37  CG       -19.1770   27.1640    8.9910 C.ar  235  TRP235      0.0003
     38  CD1      -19.7900   28.1630    8.2910 C.ar  235  TRP235      0.0946
     39  CD2      -19.3740   25.9620    8.2300 C.ar  235  TRP235      0.0152
     40  NE1      -20.3580   27.6580    7.1430 N.ar  235  TRP235     -0.2442
     41  CE2      -20.1160   26.3100    7.0820 C.ar  235  TRP235      0.0810
     42  CE3      -18.9950   24.6220    8.4110 C.ar  235  TRP235      0.0012
     43  CZ2      -20.4880   25.3640    6.1140 C.ar  235  TRP235      0.0191
     44  CZ3      -19.3660   23.6830    7.4490 C.ar  235  TRP235      0.0001
     45  CH2      -20.1030   24.0590    6.3170 C.ar  235  TRP235      0.0015
     46  N        -19.2050   22.4640   11.8700 N.3   244  CYS244     -0.1235
     47  CA       -17.8630   21.9050   11.9350 C.3   244  CYS244      0.1677
     48  C        -17.6280   20.6920   12.8260 C.2   244  CYS244      0.2270
     49  O        -16.4910   20.2190   12.9310 O.2   244  CYS244     -0.2867
     50  CB       -16.8670   22.9880   12.3130 C.3   244  CYS244      0.0956
     51  SG       -16.5660   24.2170   11.0120 S.3   244  CYS244     -0.0801
     52  N        -19.9710   17.4700   11.0370 N.3   247  GLU247     -0.1231
     53  CA       -19.1020   17.0410    9.9370 C.3   247  GLU247      0.1699
     54  C        -17.7480   16.9870   10.6550 C.2   247  GLU247      0.2592
     55  O        -17.6820   17.3320   11.8310 O.2   247  GLU247     -0.2718
     56  CB       -19.1070   18.0940    8.8240 C.3   247  GLU247      0.0402
     57  CG       -20.4730   18.7900    8.6720 C.3   247  GLU247      0.1161
     58  CD       -20.5390   19.7840    7.5180 C.2   247  GLU247      0.3649
     59  OE1      -19.5300   20.4860    7.2440 O.co2 247  GLU247     -0.2457
     60  OE2      -21.6240   19.8620    6.9000 O.co2 247  GLU247     -0.2457
     61  N        -16.6710   16.5760   10.0010 N.am  248  ASP248     -0.1974
     62  CA       -15.4100   16.4890   10.7350 C.3   248  ASP248      0.1709
     63  C        -15.7240   15.7380   12.0400 C.2   248  ASP248      0.2293
     64  O        -15.6910   16.3070   13.1240 O.2   248  ASP248     -0.2864
     65  CB       -14.8620   17.8910   11.0170 C.3   248  ASP248      0.1436
     66  CG       -14.2220   18.5220    9.7910 C.2   248  ASP248      0.3671
     67  OD1      -13.2210   17.9740    9.3030 O.co2 248  ASP248     -0.2456
     68  OD2      -14.7100   19.5580    9.3030 O.co2 248  ASP248     -0.2456
     69  N        -14.4780   27.2810   11.8750 N.3   256  ARG256     -0.1231
     70  CA       -14.8590   27.2150   10.4590 C.3   256  ARG256      0.1694
     71  C        -13.7880   26.6610    9.5080 C.2   256  ARG256      0.2592
     72  O        -13.4210   27.3720    8.5890 O.2   256  ARG256     -0.2718
     73  CB       -15.2370   28.6350    9.9770 C.3   256  ARG256      0.0321
     74  CG       -15.7470   28.7980    8.5290 C.3   256  ARG256      0.0489
     75  CD       -15.8830   30.2960    8.1830 C.3   256  ARG256      0.2205
     76  NE       -16.2200   30.5660    6.7840 N.pl3 256  ARG256     -0.0865
     77  CZ       -17.4570   30.6230    6.3020 C.cat 256  ARG256      0.5346
     78  NH1      -18.5010   30.4340    7.0940 N.pl3 256  ARG256      0.1354
     79  NH2      -17.6500   30.8710    5.0190 N.pl3 256  ARG256      0.1354
     80  N        -13.2550   25.4440    9.6390 N.am  257  CYS257     -0.1956
     81  CA       -13.4950   24.4010   10.6080 C.3   257  CYS257      0.1843
     82  C        -12.1180   24.1140   11.1590 C.2   257  CYS257      0.2625
     83  O        -11.7370   24.6970   12.1590 O.2   257  CYS257     -0.2714
     84  CB       -13.9770   23.1530    9.9050 C.3   257  CYS257      0.0997
     85  SG       -15.7320   23.1600    9.4960 S.3   257  CYS257     -0.0797
     86  N        -11.3470   23.2560   10.4880 N.am  258  HIS258     -0.1973
     87  CA       -10.0220   22.9250   11.0130 C.3   258  HIS258      0.1656
     88  C         -8.8000   22.9300   10.1250 C.2   258  HIS258      0.2291
     89  O         -8.8800   22.9200    8.9020 O.2   258  HIS258     -0.2864
     90  CB       -10.0460   21.5530   11.6590 C.3   258  HIS258      0.0771
     91  CG        -9.9740   20.4330   10.6760 C.ar  258  HIS258      0.0820
     92  ND1      -11.0690   20.0010    9.9590 N.ar  258  HIS258     -0.2267
     93  CD2       -8.9340   19.6640   10.2780 C.ar  258  HIS258      0.1154
     94  CE1      -10.7070   19.0090    9.1660 C.ar  258  HIS258      0.1986
     95  NE2       -9.4170   18.7840    9.3400 N.ar  258  HIS258     -0.2212
     96  N        -16.3790   15.9220    3.9080 N.3   281  THR281     -0.1203
     97  CA       -15.4130   16.8860    4.4130 C.3   281  THR281      0.1994
     98  C        -14.2240   16.0750    4.8670 C.2   281  THR281      0.2617
     99  O        -14.3340   14.8740    5.0510 O.2   281  THR281     -0.2717
    100  CB       -15.9200   17.6180    5.6280 C.3   281  THR281      0.1784
    101  OG1      -15.6730   16.8120    6.7900 O.3   281  THR281     -0.2211
    102  CG2      -17.4060   17.8970    5.4830 C.3   281  THR281      0.0376
    103  N        -13.0950   16.7290    5.0710 N.am  282  ASP282     -0.1973
    104  CA       -11.9000   16.0300    5.4940 C.3   282  ASP282      0.1709
    105  C        -11.9260   15.7720    7.0010 C.2   282  ASP282      0.2293
    106  O        -11.1290   16.3210    7.7560 O.2   282  ASP282     -0.2864
    107  CB       -10.6590   16.8380    5.0790 C.3   282  ASP282      0.1436
    108  CG       -10.5840   18.2000    5.7550 C.2   282  ASP282      0.3671
    109  OD1      -11.6470   18.8460    5.9190 O.co2 282  ASP282     -0.2456
    110  OD2       -9.4560   18.6250    6.1140 O.co2 282  ASP282     -0.2456
    111  N         -3.4050   19.0300    8.9070 N.3   288  MET288     -0.1245
    112  CA        -3.1580   19.6480    7.6080 C.3   288  MET288      0.1570
    113  C         -1.7660   20.2130    7.4090 C.2   288  MET288      0.2261
    114  O         -1.0430   19.7860    6.5120 O.2   288  MET288     -0.2867
    115  CB        -4.1880   20.7430    7.3110 C.3   288  MET288      0.0387
    116  CG        -5.5080   20.1920    6.7920 C.3   288  MET288      0.0595
    117  SD        -6.8190   21.4190    6.5190 S.3   288  MET288     -0.1393
    118  CE        -6.3610   22.0200    4.9050 C.3   288  MET288      0.0692
    119  N         -4.7130   17.8210    4.3780 N.3   293  SER293     -0.1217
    120  CA        -6.1180   17.5680    4.6480 C.3   293  SER293      0.1889
    121  C         -6.6210   16.1780    4.2000 C.2   293  SER293      0.2288
    122  O         -7.7990   15.8530    4.3530 O.2   293  SER293     -0.2866
    123  CB        -6.9270   18.6740    3.9590 C.3   293  SER293      0.2089
    124  OG        -8.2520   18.7390    4.4300 O.3   293  SER293     -0.2183
@<TRIPOS>BOND
     1    16    14   am
     2    14    15    2
     3    14    13    1
     4     8     6    1
     5     4     3    2
     6     3     2    1
     7     2     1    1
     8     2     5    1
     9    13    10    1
    10     6     5    1
    11     6     7    1
    12    10     9    1
    13    10    11    1
    14    96    97    1
    15   123   124    1
    16   123   120    1
    17   121   122    2
    18   121   120    1
    19   119   120    1
    20    97    98    1
    21    97   100    1
    22    24    23    1
    23    11    12    2
    24    98    99    2
    25    98   103   am
    26   118   117    1
    27    79    77    1
    28   103   104    1
    29   107   104    1
    30   107   108    1
    31   102   100    1
    32   104   105    1
    33   100   101    1
    34   108   109   ar
    35   108   110   ar
    36    43    45   ar
    37    43    41   ar
    38    23    22    1
    39    77    76    2
    40    77    78    1
    41    45    44   ar
    42   114   113    2
    43   117   116    1
    44    76    75    1
    45   116   115    1
    46    60    58   ar
    47    22    21    1
    48   105   106    2
    49    41    40   ar
    50    41    39   ar
    51    40    38   ar
    52    59    58   ar
    53   115   112    1
    54   113   112    1
    55    44    42   ar
    56    58    57    1
    57   112   111    1
    58    31    29    1
    59    75    74    1
    60    39    42   ar
    61    39    37   ar
    62    38    37   ar
    63    21    18    1
    64    74    73    1
    65    72    71    2
    66    57    56    1
    67    17    18    1
    68    56    53    1
    69    89    88    2
    70    30    29    1
    71    37    36    1
    72    29    26    1
    73    94    95   ar
    74    94    92   ar
    75    68    66   ar
    76    67    66   ar
    77    18    19    1
    78    95    93   ar
    79    85    84    1
    80    85    51    1
    81    71    80   am
    82    71    70    1
    83    19    20    2
    84    19    25   am
    85    80    81    1
    86    66    65    1
    87    25    26    1
    88    84    81    1
    89    53    54    1
    90    53    52    1
    91    92    91   ar
    92    73    70    1
    93    61    54   am
    94    61    62    1
    95    88    87    1
    96    26    27    1
    97    93    91   ar
    98    36    33    1
    99    70    69    1
   100    86    87    1
   101    86    82   am
   102    81    82    1
   103    54    55    2
   104    91    90    1
   105    62    65    1
   106    62    63    1
   107    33    34    1
   108    33    32    1
   109    51    50    1
   110    87    90    1
   111    82    83    2
   112    27    28    2
   113    34    35    2
   114    46    47    1
   115    47    50    1
   116    47    48    1
   117    63    64    2
   118    48    49    2
