@<TRIPOS>MOLECULE
tmp/2hplA00.pdb
 115 109 0 0 0
SMALL
GASTEIGER

@<TRIPOS>ATOM
      1  N         47.2740   49.9570   11.7140 N.3    23  LEU23      -0.1245
      2  CA        46.8840   50.4990   13.0160 C.3    23  LEU23       0.1561
      3  C         45.4030   50.2570   13.2920 C.2    23  LEU23       0.2260
      4  O         45.0420   49.8320   14.3830 O.2    23  LEU23      -0.2867
      5  CB        47.2070   51.9740   13.1020 C.3    23  LEU23       0.0270
      6  CG        48.6910   52.2820   13.2240 C.3    23  LEU23       0.0019
      7  CD1       49.0450   53.7570   12.9050 C.3    23  LEU23       0.0001
      8  CD2       49.1370   51.9090   14.6510 C.3    23  LEU23       0.0001
      9  N         44.7300   46.7460   14.3260 N.3    26  THR26      -0.1203
     10  CA        45.2200   46.4940   15.6730 C.3    26  THR26       0.1994
     11  C         44.2270   47.0420   16.6930 C.2    26  THR26       0.2617
     12  O         43.9230   46.3930   17.6920 O.2    26  THR26      -0.2717
     13  CB        46.6570   47.1320   15.8370 C.3    26  THR26       0.1784
     14  OG1       47.5850   46.4850   14.9640 O.3    26  THR26      -0.2211
     15  CG2       47.1540   47.0340   17.2650 C.3    26  THR26       0.0376
     16  N         43.6920   48.2500   16.4530 N.am   27  TYR27      -0.1975
     17  CA        42.7480   48.8230   17.3920 C.3    27  TYR27       0.1639
     18  C         41.5020   47.9770   17.4720 C.2    27  TYR27       0.2290
     19  O         40.9200   47.8070   18.5440 O.2    27  TYR27      -0.2864
     20  CB        42.3920   50.2640   17.0280 C.3    27  TYR27       0.0560
     21  CG        43.5180   51.2680   17.2520 C.ar   27  TYR27      -0.0198
     22  CD1       44.1330   51.3950   18.4960 C.ar   27  TYR27      -0.0009
     23  CD2       43.9110   52.1400   16.2360 C.ar   27  TYR27      -0.0009
     24  CE1       45.1420   52.3310   18.7080 C.ar   27  TYR27       0.0417
     25  CE2       44.9300   53.0640   16.4330 C.ar   27  TYR27       0.0417
     26  CZ        45.5250   53.1570   17.6740 C.ar   27  TYR27       0.1957
     27  OH        46.5220   54.0650   17.9210 O.3    27  TYR27      -0.2866
     28  N         42.4150   44.2360   19.0890 N.3    30  ASN30      -0.1240
     29  CA        42.6400   44.2620   20.5340 C.3    30  ASN30       0.1653
     30  C         41.3320   44.2550   21.3500 C.2    30  ASN30       0.2266
     31  O         41.2360   43.5790   22.3720 O.2    30  ASN30      -0.2867
     32  CB        43.4950   45.4390   20.9650 C.3    30  ASN30       0.1155
     33  CG        44.9700   45.2570   20.5830 C.2    30  ASN30       0.2627
     34  OD1       45.4250   44.1410   20.2960 O.2    30  ASN30      -0.2716
     35  ND2       45.6860   46.3350   20.5440 N.am   30  ASN30      -0.0877
     36  N         41.4040   48.6840   28.7510 N.3    39  LYS39      -0.1231
     37  CA        42.4860   49.5250   28.3020 C.3    39  LYS39       0.1693
     38  C         42.4900   49.6620   26.7790 C.2    39  LYS39       0.2592
     39  O         42.9760   50.6670   26.2710 O.2    39  LYS39      -0.2718
     40  CB        43.8570   49.0940   28.8620 C.3    39  LYS39       0.0285
     41  CG        44.4970   47.8970   28.2430 C.3    39  LYS39       0.0035
     42  CD        46.0140   47.8760   28.5740 C.3    39  LYS39       0.0206
     43  CE        46.7560   46.7430   27.9310 C.3    39  LYS39       0.1093
     44  NZ        46.7830   45.5250   28.8140 N.3    39  LYS39      -0.1314
     45  N         41.8970   48.7080   26.0560 N.am   40  TYR40      -0.1976
     46  CA        41.8490   48.8020   24.5960 C.3    40  TYR40       0.1639
     47  C         40.6830   49.6450   24.0500 C.2    40  TYR40       0.2290
     48  O         40.5830   49.8870   22.8420 O.2    40  TYR40      -0.2864
     49  CB        41.7890   47.4250   23.9880 C.3    40  TYR40       0.0560
     50  CG        42.9630   46.5710   24.3560 C.ar   40  TYR40      -0.0198
     51  CD1       44.2770   47.0190   24.1290 C.ar   40  TYR40      -0.0009
     52  CD2       42.7760   45.3310   24.8930 C.ar   40  TYR40      -0.0009
     53  CE1       45.3560   46.2180   24.4320 C.ar   40  TYR40       0.0417
     54  CE2       43.8550   44.5320   25.2380 C.ar   40  TYR40       0.0417
     55  CZ        45.1310   44.9720   24.9850 C.ar   40  TYR40       0.1957
     56  OH        46.2030   44.1680   25.3240 O.3    40  TYR40      -0.2866
     57  N         40.0810   52.8710   24.8400 N.3    42  SER42      -0.1202
     58  CA        40.3500   54.2960   24.7920 C.3    42  SER42       0.2020
     59  C         41.7360   54.5470   24.1560 C.2    42  SER42       0.2619
     60  O         42.7340   53.8220   24.4130 O.2    42  SER42      -0.2717
     61  CB        40.1360   54.9390   26.1640 C.3    42  SER42       0.2103
     62  OG        41.2980   54.9060   26.9090 O.3    42  SER42      -0.2182
     63  N         41.7650   55.5300   23.2700 N.am   43  ILE43      -0.1965
     64  CA        42.9440   55.8460   22.4940 C.3    43  ILE43       0.1727
     65  C         43.1710   57.3490   22.7120 C.2    43  ILE43       0.2616
     66  O         42.3000   58.1540   22.3790 O.2    43  ILE43      -0.2715
     67  CB        42.7050   55.6060   20.9890 C.3    43  ILE43       0.0290
     68  CG1       42.2440   54.1570   20.7010 C.3    43  ILE43       0.0022
     69  CG2       43.9590   55.9590   20.1780 C.3    43  ILE43       0.0023
     70  CD1       41.9020   53.9080   19.2510 C.3    43  ILE43       0.0001
     71  N         44.3510   57.7160   23.2050 N.am   44  ARG44      -0.1977
     72  CA        44.6100   59.1050   23.4890 C.3    44  ARG44       0.1597
     73  C         44.8460   59.8760   22.1850 C.2    44  ARG44       0.2287
     74  O         45.6770   59.5160   21.3540 O.2    44  ARG44      -0.2864
     75  CB        45.7990   59.2280   24.4320 C.3    44  ARG44       0.0334
     76  CG        45.9230   60.5850   25.0610 C.3    44  ARG44       0.0492
     77  CD        46.9240   60.5960   26.1830 C.3    44  ARG44       0.2205
     78  NE        48.2930   60.4680   25.6700 N.pl3  44  ARG44      -0.0865
     79  CZ        49.0290   61.4550   25.1660 C.cat  44  ARG44       0.5346
     80  NH1       48.5690   62.6830   25.0780 N.pl3  44  ARG44       0.1354
     81  NH2       50.2540   61.1830   24.7290 N.pl3  44  ARG44       0.1354
     82  N         48.4420   60.7040   21.5890 N.3    47  ASN47      -0.1240
     83  CA        49.4040   59.5830   21.4800 C.3    47  ASN47       0.1653
     84  C         50.2320   59.7640   20.2060 C.2    47  ASN47       0.2266
     85  O         49.6960   60.1010   19.1790 O.2    47  ASN47      -0.2867
     86  CB        48.6440   58.2530   21.4440 C.3    47  ASN47       0.1155
     87  CG        49.5530   57.0550   21.0970 C.2    47  ASN47       0.2627
     88  OD1       49.7380   56.7160   19.9380 O.2    47  ASN47      -0.2716
     89  ND2       50.1100   56.4340   22.1040 N.am   47  ASN47      -0.0877
     90  N         51.8900   57.8100   17.9290 N.3    49  ALA49      -0.1245
     91  CA        51.5170   56.9710   16.7890 C.3    49  ALA49       0.1562
     92  C         50.1760   57.3790   16.2040 C.2    49  ALA49       0.2260
     93  O         50.0420   57.5620   14.9910 O.2    49  ALA49      -0.2867
     94  CB        51.4850   55.5140   17.1830 C.3    49  ALA49       0.0290
     95  N         50.4230   59.0530   12.6180 N.3    53  ARG53      -0.1245
     96  CA        50.2580   58.0040   11.6110 C.3    53  ARG53       0.1563
     97  C         48.8350   57.6130   11.2940 C.2    53  ARG53       0.2260
     98  O         48.5930   56.9160   10.3050 O.2    53  ARG53      -0.2867
     99  CB        51.0030   56.7570   12.0500 C.3    53  ARG53       0.0307
    100  CG        52.4620   57.0350   12.1960 C.3    53  ARG53       0.0489
    101  CD        53.1380   55.8630   12.8100 C.3    53  ARG53       0.2205
    102  NE        53.8760   56.3020   13.9850 N.pl3  53  ARG53      -0.0865
    103  CZ        54.2290   55.5050   14.9820 C.cat  53  ARG53       0.5346
    104  NH1       53.9140   54.2040   14.9230 N.pl3  53  ARG53       0.1354
    105  NH2       54.8990   56.0170   16.0250 N.pl3  53  ARG53       0.1354
    106  N         40.3790   61.6360   24.3770 N.3    75  HIS75      -0.1241
    107  CA        40.4150   60.2700   23.8600 C.3    75  HIS75       0.1621
    108  C         39.2810   59.9400   22.9510 C.2    75  HIS75       0.2264
    109  O         38.1760   60.4710   23.0970 O.2    75  HIS75      -0.2867
    110  CB        40.3730   59.2350   24.9710 C.3    75  HIS75       0.0745
    111  CG        41.4520   59.3770   25.9850 C.ar   75  HIS75       0.0817
    112  ND1       42.4720   58.4670   26.1230 N.ar   75  HIS75      -0.2268
    113  CD2       41.6710   60.3330   26.9080 C.ar   75  HIS75       0.1154
    114  CE1       43.2590   58.8410   27.1150 C.ar   75  HIS75       0.1986
    115  NE2       42.8000   59.9730   27.6050 N.ar   75  HIS75      -0.2212
@<TRIPOS>BOND
     1    98    97    2
     2    97    96    1
     3    96    99    1
     4    96    95    1
     5     1     2    1
     6    99   100    1
     7   100   101    1
     8   101   102    1
     9     7     6    1
    10     2     5    1
    11     2     3    1
    12     5     6    1
    13     6     8    1
    14     3     4    2
    15   102   103    2
    16     9    10    1
    17   104   103    1
    18    14    13    1
    19   103   105    1
    20    93    92    2
    21    10    13    1
    22    10    11    1
    23    13    15    1
    24    92    91    1
    25    23    25   ar
    26    23    21   ar
    27    25    26   ar
    28    16    11   am
    29    16    17    1
    30    11    12    2
    31    91    94    1
    32    91    90    1
    33    20    21    1
    34    20    17    1
    35    21    22   ar
    36    17    18    1
    37    18    19    2
    38    26    27    1
    39    26    24   ar
    40    22    24   ar
    41    28    29    1
    42    85    84    2
    43    70    68    1
    44    88    87    2
    45    69    67    1
    46    84    83    1
    47    34    33    2
    48    29    32    1
    49    29    30    1
    50    35    33   am
    51    33    32    1
    52    68    67    1
    53    67    64    1
    54    87    86    1
    55    87    89   am
    56    30    31    2
    57    74    73    2
    58    86    83    1
    59    83    82    1
    60    73    72    1
    61    66    65    2
    62    64    65    1
    63    64    63    1
    64    65    71   am
    65    48    47    2
    66   108   109    2
    67   108   107    1
    68    71    72    1
    69    63    59   am
    70    72    75    1
    71   107   106    1
    72   107   110    1
    73    49    50    1
    74    49    46    1
    75    47    46    1
    76    51    50   ar
    77    51    53   ar
    78    59    60    2
    79    59    58    1
    80    50    52   ar
    81    53    55   ar
    82    75    76    1
    83    46    45    1
    84    81    79    1
    85    58    57    1
    86    58    61    1
    87    52    54   ar
    88   110   111    1
    89    55    54   ar
    90    55    56    1
    91    76    77    1
    92    80    79    1
    93    79    78    2
    94    78    77    1
    95   111   112   ar
    96   111   113   ar
    97    45    38   am
    98   112   114   ar
    99    61    62    1
   100    39    38    2
   101    38    37    1
   102   113   115   ar
   103   114   115   ar
   104    43    42    1
   105    43    44    1
   106    41    42    1
   107    41    40    1
   108    37    36    1
   109    37    40    1
