@<TRIPOS>MOLECULE
tmp/2hpsA00.pdb
 208 199 0 0 0
SMALL
GASTEIGER

@<TRIPOS>ATOM
      1  N        -31.1520   18.0700   35.8690 N.3    16  ARG16      -0.1245
      2  CA       -31.1490   18.9330   37.0560 C.3    16  ARG16       0.1563
      3  C        -32.2870   19.9570   36.9610 C.2    16  ARG16       0.2260
      4  O        -33.0250   20.1730   37.9120 O.2    16  ARG16      -0.2867
      5  CB       -29.8070   19.6610   37.1380 C.3    16  ARG16       0.0307
      6  CG       -29.7150   20.6790   38.2550 C.3    16  ARG16       0.0489
      7  CD       -28.3610   21.3880   38.1740 C.3    16  ARG16       0.2205
      8  NE       -28.3730   22.6420   38.9400 N.pl3  16  ARG16      -0.0865
      9  CZ       -27.5240   23.6550   38.7510 C.cat  16  ARG16       0.5346
     10  NH1      -26.5560   23.5860   37.8330 N.pl3  16  ARG16       0.1354
     11  NH2      -27.6270   24.7380   39.5040 N.pl3  16  ARG16       0.1354
     12  N        -35.8700   18.9680   37.6800 N.3    18  ARG18      -0.1231
     13  CA       -36.2060   18.8960   39.0980 C.3    18  ARG18       0.1694
     14  C        -36.7960   20.2020   39.6160 C.2    18  ARG18       0.2591
     15  O        -37.5180   20.2000   40.6190 O.2    18  ARG18      -0.2718
     16  CB       -34.9870   18.4830   39.9440 C.3    18  ARG18       0.0321
     17  CG       -34.4720   17.0750   39.6280 C.3    18  ARG18       0.0489
     18  CD       -35.5530   16.0160   39.8360 C.3    18  ARG18       0.2205
     19  NE       -36.2240   16.1800   41.1300 N.pl3  18  ARG18      -0.0865
     20  CZ       -37.3330   15.5330   41.4900 C.cat  18  ARG18       0.5346
     21  NH1      -37.8730   15.7670   42.6760 N.pl3  18  ARG18       0.1354
     22  NH2      -37.9010   14.6510   40.6690 N.pl3  18  ARG18       0.1354
     23  N        -36.5080   21.3010   38.9270 N.am   19  VAL19      -0.1980
     24  CA       -37.0520   22.5980   39.2990 C.3    19  VAL19       0.1595
     25  C        -38.4920   22.7230   38.7580 C.2    19  VAL19       0.2287
     26  O        -39.3270   23.4390   39.3130 O.2    19  VAL19      -0.2864
     27  CB       -36.1190   23.7470   38.8240 C.3    19  VAL19       0.0276
     28  CG1      -36.6240   25.1240   39.3180 C.3    19  VAL19       0.0022
     29  CG2      -34.6830   23.5210   39.3120 C.3    19  VAL19       0.0022
     30  N        -37.3710   27.8650   41.8900 N.3    32  TYR32      -0.1241
     31  CA       -36.0660   27.5960   42.4880 C.3    32  TYR32       0.1605
     32  C        -36.0710   27.8780   44.0030 C.2    32  TYR32       0.2264
     33  O        -35.5750   27.0810   44.8050 O.2    32  TYR32      -0.2867
     34  CB       -34.9810   28.3730   41.7280 C.3    32  TYR32       0.0534
     35  CG       -33.6350   27.6710   41.7020 C.ar   32  TYR32      -0.0201
     36  CD1      -33.5280   26.3250   41.2980 C.ar   32  TYR32      -0.0009
     37  CD2      -32.4640   28.3590   42.0490 C.ar   32  TYR32      -0.0009
     38  CE1      -32.2840   25.6790   41.2780 C.ar   32  TYR32       0.0417
     39  CE2      -31.2270   27.7270   42.0210 C.ar   32  TYR32       0.0417
     40  CZ       -31.1420   26.3920   41.6440 C.ar   32  TYR32       0.1957
     41  OH       -29.8960   25.7930   41.6250 O.3    32  TYR32      -0.2866
     42  N        -37.4290   25.1070   46.2830 N.3    35  ILE35      -0.1245
     43  CA       -36.4310   24.1190   46.7170 C.3    35  ILE35       0.1561
     44  C        -35.7300   24.5780   48.0020 C.2    35  ILE35       0.2260
     45  O        -35.6410   23.8220   48.9730 O.2    35  ILE35      -0.2867
     46  CB       -35.4230   23.8330   45.5920 C.3    35  ILE35       0.0252
     47  CG1      -36.1610   23.1520   44.4430 C.3    35  ILE35       0.0019
     48  CG2      -34.2510   22.9560   46.1150 C.3    35  ILE35       0.0019
     49  CD1      -35.3820   23.0570   43.1680 C.3    35  ILE35       0.0001
     50  N        -35.7760   22.8220   51.6920 N.3    39  ILE39      -0.1245
     51  CA       -34.5050   22.5190   52.3690 C.3    39  ILE39       0.1561
     52  C        -34.5540   23.0410   53.8120 C.2    39  ILE39       0.2260
     53  O        -34.2650   22.3130   54.7660 O.2    39  ILE39      -0.2867
     54  CB       -33.2910   23.1010   51.5910 C.3    39  ILE39       0.0252
     55  CG1      -33.0310   22.2840   50.3240 C.3    39  ILE39       0.0019
     56  CG2      -32.0130   23.1250   52.4800 C.3    39  ILE39       0.0019
     57  CD1      -32.1250   22.9630   49.3050 C.3    39  ILE39       0.0001
     58  N        -29.4070   30.1630   46.6980 N.3    57  PHE57      -0.1241
     59  CA       -30.2520   29.7760   45.5630 C.3    57  PHE57       0.1605
     60  C        -30.5480   30.9280   44.6030 C.2    57  PHE57       0.2264
     61  O        -30.5600   30.7420   43.3900 O.2    57  PHE57      -0.2867
     62  CB       -31.5360   29.0780   46.0240 C.3    57  PHE57       0.0534
     63  CG       -31.3580   27.5970   46.2390 C.ar   57  PHE57      -0.0203
     64  CD1      -30.5850   27.1260   47.2980 C.ar   57  PHE57      -0.0042
     65  CD2      -31.9400   26.6830   45.3610 C.ar   57  PHE57      -0.0042
     66  CE1      -30.3920   25.7280   47.4920 C.ar   57  PHE57      -0.0003
     67  CE2      -31.7530   25.3070   45.5310 C.ar   57  PHE57      -0.0003
     68  CZ       -30.9860   24.8270   46.6060 C.ar   57  PHE57      -0.0000
     69  N        -23.4130   25.8010   47.0880 N.3    97  GLN97      -0.1245
     70  CA       -24.8010   25.4000   47.1850 C.3    97  GLN97       0.1566
     71  C        -24.9390   23.9370   47.6390 C.2    97  GLN97       0.2260
     72  O        -25.7350   23.6160   48.5330 O.2    97  GLN97      -0.2867
     73  CB       -25.4510   25.6040   45.8240 C.3    97  GLN97       0.0367
     74  CG       -26.9410   25.5410   45.8030 C.3    97  GLN97       0.0905
     75  CD       -27.4680   25.6760   44.3770 C.2    97  GLN97       0.2608
     76  OE1      -26.7290   25.4920   43.3960 O.2    97  GLN97      -0.2717
     77  NE2      -28.7370   26.0190   44.2560 N.am   97  GLN97      -0.0878
     78  N        -25.4390   19.6060   51.8270 N.3   101  TYR101     -0.1241
     79  CA       -24.8370   18.5220   52.6040 C.3   101  TYR101      0.1605
     80  C        -24.9780   18.7830   54.1060 C.2   101  TYR101      0.2264
     81  O        -25.3540   17.8740   54.8680 O.2   101  TYR101     -0.2867
     82  CB       -23.3660   18.2660   52.2120 C.3   101  TYR101      0.0534
     83  CG       -22.8100   17.0480   52.9270 C.ar  101  TYR101     -0.0201
     84  CD1      -22.9160   15.7820   52.3600 C.ar  101  TYR101     -0.0009
     85  CD2      -22.2510   17.1600   54.2040 C.ar  101  TYR101     -0.0009
     86  CE1      -22.4390   14.6450   53.0250 C.ar  101  TYR101      0.0417
     87  CE2      -21.7720   16.0360   54.8900 C.ar  101  TYR101      0.0417
     88  CZ       -21.8640   14.7850   54.2910 C.ar  101  TYR101      0.1957
     89  OH       -21.4110   13.6590   54.9440 O.3   101  TYR101     -0.2866
     90  N        -28.3190   17.8160   55.3470 N.3   104  ILE104     -0.1245
     91  CA       -28.5080   16.3660   55.5230 C.3   104  ILE104      0.1561
     92  C        -27.8340   15.8750   56.8130 C.2   104  ILE104      0.2260
     93  O        -28.3590   14.9960   57.5230 O.2   104  ILE104     -0.2867
     94  CB       -27.9130   15.5620   54.3370 C.3   104  ILE104      0.0252
     95  CG1      -28.4210   16.1000   52.9890 C.3   104  ILE104      0.0019
     96  CG2      -28.2540   14.0740   54.4670 C.3   104  ILE104      0.0019
     97  CD1      -27.7110   15.4770   51.7710 C.3   104  ILE104      0.0001
     98  N        -30.1980   10.8850   54.5150 N.3   117  PHE117     -0.1241
     99  CA       -30.1360   11.1740   53.0860 C.3   117  PHE117      0.1605
    100  C        -31.5190   11.0110   52.4560 C.2   117  PHE117      0.2264
    101  O        -31.9840   11.8960   51.7390 O.2   117  PHE117     -0.2867
    102  CB       -29.1420   10.1940   52.4940 C.3   117  PHE117      0.0534
    103  CG       -28.9030   10.3400   51.0240 C.ar  117  PHE117     -0.0203
    104  CD1      -27.7340   10.9570   50.5570 C.ar  117  PHE117     -0.0042
    105  CD2      -29.7910    9.7860   50.0990 C.ar  117  PHE117     -0.0042
    106  CE1      -27.4800   11.0480   49.1720 C.ar  117  PHE117     -0.0003
    107  CE2      -29.5440    9.8770   48.7260 C.ar  117  PHE117     -0.0003
    108  CZ       -28.3940   10.4930   48.2660 C.ar  117  PHE117     -0.0000
    109  N        -33.9650   13.7930   53.5700 N.3   120  PHE120     -0.1227
    110  CA       -33.6500   15.0450   52.8840 C.3   120  PHE120      0.1736
    111  C        -34.0920   15.0190   51.4140 C.2   120  PHE120      0.2595
    112  O        -34.7840   15.9250   50.9310 O.2   120  PHE120     -0.2718
    113  CB       -32.1590   15.3920   53.0010 C.3   120  PHE120      0.0547
    114  CG       -31.7760   16.6350   52.2410 C.ar  120  PHE120     -0.0202
    115  CD1      -31.8370   17.8830   52.8520 C.ar  120  PHE120     -0.0042
    116  CD2      -31.3940   16.5590   50.9010 C.ar  120  PHE120     -0.0042
    117  CE1      -31.5060   19.0330   52.1450 C.ar  120  PHE120     -0.0003
    118  CE2      -31.0530   17.7020   50.1870 C.ar  120  PHE120     -0.0003
    119  CZ       -31.1200   18.9400   50.8160 C.ar  120  PHE120     -0.0000
    120  N        -33.7060   13.9650   50.7100 N.am  121  LEU121     -0.1980
    121  CA       -34.0070   13.8610   49.2960 C.3   121  LEU121      0.1596
    122  C        -35.5140   13.8270   49.0270 C.2   121  LEU121      0.2287
    123  O        -35.9910   14.4350   48.0740 O.2   121  LEU121     -0.2864
    124  CB       -33.3150   12.6360   48.6960 C.3   121  LEU121      0.0297
    125  CG       -33.4970   12.4880   47.1960 C.3   121  LEU121      0.0022
    126  CD1      -33.0410   13.7660   46.4490 C.3   121  LEU121      0.0001
    127  CD2      -32.7080   11.2640   46.7190 C.3   121  LEU121      0.0001
    128  N        -36.9820   17.4350   49.5060 N.3   124  VAL124     -0.1245
    129  CA       -36.7960   18.3160   48.3410 C.3   124  VAL124      0.1561
    130  C        -37.5710   17.7730   47.1530 C.2   124  VAL124      0.2260
    131  O        -38.0940   18.5440   46.3430 O.2   124  VAL124     -0.2867
    132  CB       -35.3040   18.6140   47.9830 C.3   124  VAL124      0.0252
    133  CG1      -34.5620   19.1280   49.2290 C.3   124  VAL124      0.0019
    134  CG2      -34.6220   17.4130   47.4130 C.3   124  VAL124      0.0019
    135  N        -40.3590   11.5130   44.6920 N.3   128  LEU128     -0.1245
    136  CA       -39.3820   10.4210   44.5640 C.3   128  LEU128      0.1561
    137  C        -39.6950    9.2190   45.4480 C.2   128  LEU128      0.2260
    138  O        -39.8120    9.3610   46.6700 O.2   128  LEU128     -0.2867
    139  CB       -37.9670   10.9340   44.8830 C.3   128  LEU128      0.0270
    140  CG       -37.4170   11.9970   43.9150 C.3   128  LEU128      0.0019
    141  CD1      -36.0940   12.5670   44.4200 C.3   128  LEU128      0.0001
    142  CD2      -37.2730   11.4510   42.5030 C.3   128  LEU128      0.0001
    143  N        -36.1330    5.0290   44.3520 N.3   132  LYS132     -0.1245
    144  CA       -35.2550    6.0280   43.7700 C.3   132  LYS132      0.1561
    145  C        -34.3010    6.6590   44.7710 C.2   132  LYS132      0.2260
    146  O        -33.1220    6.8530   44.4600 O.2   132  LYS132     -0.2867
    147  CB       -36.0460    7.1030   43.0050 C.3   132  LYS132      0.0271
    148  CG       -36.6160    6.5620   41.6930 C.3   132  LYS132      0.0035
    149  CD       -37.4290    7.6340   40.9680 C.3   132  LYS132      0.0206
    150  CE       -38.4570    7.0180   39.9880 C.3   132  LYS132      0.1093
    151  NZ       -37.8750    5.9550   39.1240 N.3   132  LYS132     -0.1314
    152  N        -30.1760    6.0390   44.8260 N.3   136  CYS136     -0.1235
    153  CA       -29.2960    7.1930   44.7600 C.3   136  CYS136      0.1677
    154  C        -28.2190    7.1350   45.8730 C.2   136  CYS136      0.2270
    155  O        -27.0000    7.2740   45.5980 O.2   136  CYS136     -0.2867
    156  CB       -30.1290    8.4840   44.8350 C.3   136  CYS136      0.0956
    157  SG       -29.1710   10.0150   44.6110 S.3   136  CYS136     -0.0801
    158  N        -19.2090   13.0350   49.0040 N.3   153  PHE153     -0.1241
    159  CA       -20.3160   13.7870   48.4060 C.3   153  PHE153      0.1605
    160  C        -19.7650   14.8230   47.4240 C.2   153  PHE153      0.2264
    161  O        -20.2520   14.9480   46.2900 O.2   153  PHE153     -0.2867
    162  CB       -21.1510   14.4420   49.4980 C.3   153  PHE153      0.0534
    163  CG       -22.4150   15.1070   48.9990 C.ar  153  PHE153     -0.0203
    164  CD1      -23.5290   14.3450   48.6690 C.ar  153  PHE153     -0.0042
    165  CD2      -22.4870   16.5100   48.8940 C.ar  153  PHE153     -0.0042
    166  CE1      -24.7230   14.9670   48.2250 C.ar  153  PHE153     -0.0003
    167  CE2      -23.6750   17.1360   48.4470 C.ar  153  PHE153     -0.0003
    168  CZ       -24.7830   16.3530   48.1210 C.ar  153  PHE153     -0.0000
    169  N        -26.1380    9.2030   38.3170 N.3   172  ALA172     -0.1231
    170  CA       -27.0360    8.8330   39.4180 C.3   172  ALA172      0.1694
    171  C        -27.4810   10.0030   40.3000 C.2   172  ALA172      0.2592
    172  O        -28.5570    9.9390   40.9110 O.2   172  ALA172     -0.2718
    173  CB       -26.3950    7.7680   40.2840 C.3   172  ALA172      0.0304
    174  N        -26.6500   11.0440   40.3710 N.am  173  PHE173     -0.1962
    175  CA       -26.8320   12.1500   41.3370 C.3   173  PHE173      0.1771
    176  C        -28.2230   12.7860   41.2860 C.2   173  PHE173      0.2620
    177  O        -28.8250   13.0530   42.3470 O.2   173  PHE173     -0.2715
    178  CB       -25.7430   13.2100   41.1250 C.3   173  PHE173      0.0574
    179  CG       -25.6500   14.2730   42.2200 C.ar  173  PHE173     -0.0200
    180  CD1      -25.8800   13.9630   43.5570 C.ar  173  PHE173     -0.0042
    181  CD2      -25.2500   15.5810   41.8970 C.ar  173  PHE173     -0.0042
    182  CE1      -25.7740   14.9550   44.5450 C.ar  173  PHE173     -0.0003
    183  CE2      -25.1330   16.5650   42.8790 C.ar  173  PHE173     -0.0003
    184  CZ       -25.3940   16.2530   44.2080 C.ar  173  PHE173     -0.0000
    185  N        -28.6950   13.0450   40.0590 N.am  174  TYR174     -0.1960
    186  CA       -30.0260   13.5850   39.8080 C.3   174  TYR174      0.1771
    187  C        -30.9610   12.5550   39.1620 C.2   174  TYR174      0.2620
    188  O        -31.9200   12.9110   38.4420 O.2   174  TYR174     -0.2715
    189  CB       -29.9050   14.8520   38.9510 C.3   174  TYR174      0.0574
    190  CG       -29.6390   16.0840   39.7800 C.ar  174  TYR174     -0.0198
    191  CD1      -30.6920   16.8810   40.2330 C.ar  174  TYR174     -0.0009
    192  CD2      -28.3300   16.4450   40.1320 C.ar  174  TYR174     -0.0009
    193  CE1      -30.4530   18.0090   40.9970 C.ar  174  TYR174      0.0417
    194  CE2      -28.0820   17.5880   40.9060 C.ar  174  TYR174      0.0417
    195  CZ       -29.1590   18.3570   41.3270 C.ar  174  TYR174      0.1957
    196  OH       -28.9330   19.4820   42.0920 O.3   174  TYR174     -0.2866
    197  N        -30.6930   11.2800   39.4390 N.am  175  GLY175     -0.1940
    198  CA       -31.4660   10.1630   38.8530 C.3   175  GLY175      0.2014
    199  C        -31.1970    9.9370   37.3720 C.2   175  GLY175      0.2638
    200  O        -30.2580   10.5020   36.8010 O.2   175  GLY175     -0.2714
    201  N        -32.0280    9.1030   36.7500 N.am  176  ASP176     -0.1971
    202  CA       -31.7920    8.7150   35.3630 C.3   176  ASP176      0.1709
    203  C        -31.8710    9.9610   34.4940 C.2   176  ASP176      0.2293
    204  O        -32.8280   10.7370   34.5840 O.2   176  ASP176     -0.2864
    205  CB       -32.8240    7.6830   34.8930 C.3   176  ASP176      0.1436
    206  CG       -32.7020    6.3450   35.6070 C.2   176  ASP176      0.3671
    207  OD1      -31.6190    6.0170   36.1710 O.co2 176  ASP176     -0.2456
    208  OD2      -33.7040    5.5990   35.5690 O.co2 176  ASP176     -0.2456
@<TRIPOS>BOND
     1   203   204    2
     2   203   202    1
     3   205   202    1
     4   205   206    1
     5   202   201    1
     6   208   206   ar
     7   206   207   ar
     8     1     2    1
     9   201   199   am
    10   200   199    2
    11     3     2    1
    12     3     4    2
    13     2     5    1
    14     5     6    1
    15   199   198    1
    16    12    13    1
    17    10     9    1
    18     7     6    1
    19     7     8    1
    20   169   170    1
    21   188   187    2
    22     9     8    2
    23     9    11    1
    24    25    24    1
    25    25    26    2
    26    27    24    1
    27    27    29    1
    28    27    28    1
    29   198   197    1
    30    23    24    1
    31    23    14   am
    32   189   190    1
    33   189   186    1
    34    13    14    1
    35    13    16    1
    36   151   150    1
    37   187   197   am
    38   187   186    1
    39   170   173    1
    40   170   171    1
    41    14    15    2
    42    17    18    1
    43    17    16    1
    44   190   192   ar
    45   190   191   ar
    46   186   185    1
    47    18    19    1
    48   150   149    1
    49   185   176   am
    50   192   194   ar
    51   191   193   ar
    52   171   174   am
    53   171   172    2
    54   174   175    1
    55    22    20    1
    56   194   195   ar
    57   149   148    1
    58   193   195   ar
    59   178   175    1
    60   178   179    1
    61    19    20    2
    62    38    36   ar
    63    38    40   ar
    64   176   175    1
    65   176   177    2
    66    36    35   ar
    67   195   196    1
    68    20    21    1
    69    41    40    1
    70    40    39   ar
    71   148   147    1
    72    35    34    1
    73    35    37   ar
    74    34    31    1
    75    30    31    1
    76   181   179   ar
    77   181   183   ar
    78    39    37   ar
    79   179   180   ar
    80    31    32    1
    81   142   140    1
    82   183   184   ar
    83   147   144    1
    84    49    47    1
    85    61    60    2
    86    76    75    2
    87   180   182   ar
    88   144   143    1
    89   144   145    1
    90   140   141    1
    91   140   139    1
    92    32    33    2
    93   184   182   ar
    94    77    75   am
    95    75    74    1
    96    47    46    1
    97   146   145    2
    98   136   135    1
    99   136   139    1
   100   136   137    1
   101    60    59    1
   102   157   156    1
   103   153   152    1
   104   153   156    1
   105   153   154    1
   106    65    67   ar
   107    65    63   ar
   108   137   138    2
   109    67    68   ar
   110    59    62    1
   111    59    58    1
   112    46    48    1
   113    46    43    1
   114   155   154    2
   115    74    73    1
   116    73    70    1
   117    62    63    1
   118    63    64   ar
   119    42    43    1
   120   161   160    2
   121   131   130    2
   122   126   125    1
   123    68    66   ar
   124    43    44    1
   125   127   125    1
   126    69    70    1
   127   130   129    1
   128    70    71    1
   129   125   124    1
   130    64    66   ar
   131   134   132    1
   132   160   159    1
   133    71    72    2
   134   132   129    1
   135   132   133    1
   136    44    45    2
   137   123   122    2
   138   168   166   ar
   139   168   167   ar
   140   166   164   ar
   141   108   107   ar
   142   108   106   ar
   143   129   128    1
   144   159   158    1
   145   159   162    1
   146   167   165   ar
   147   164   163   ar
   148   124   121    1
   149   107   105   ar
   150   165   163   ar
   151   163   162    1
   152   122   121    1
   153   106   104   ar
   154   121   120    1
   155    57    55    1
   156   105   103   ar
   157   118   119   ar
   158   118   116   ar
   159    55    54    1
   160   104   103   ar
   161   120   111   am
   162   119   117   ar
   163   116   114   ar
   164   112   111    2
   165   103   102    1
   166   111   110    1
   167    54    51    1
   168    54    56    1
   169    50    51    1
   170   101   100    2
   171    97    95    1
   172    78    79    1
   173   117   115   ar
   174    82    79    1
   175    82    83    1
   176   114   115   ar
   177   114   113    1
   178    84    83   ar
   179    84    86   ar
   180    51    52    1
   181   100    99    1
   182   102    99    1
   183    79    80    1
   184   110   113    1
   185   110   109    1
   186    83    85   ar
   187    95    94    1
   188    86    88   ar
   189    99    98    1
   190    52    53    2
   191    80    81    2
   192    85    87   ar
   193    88    87   ar
   194    88    89    1
   195    94    96    1
   196    94    91    1
   197    90    91    1
   198    91    92    1
   199    92    93    2
