@<TRIPOS>MOLECULE
tmp/2hpvB01.pdb
 147 145 0 0 0
SMALL
GASTEIGER

@<TRIPOS>ATOM
      1  N         50.5310   53.8740   41.9790 N.3     9  HIS9       -0.1241
      2  CA        50.0350   52.5300   42.0130 C.3     9  HIS9        0.1621
      3  C         48.9950   52.5130   43.1050 C.2     9  HIS9        0.2264
      4  O         49.2840   52.9930   44.2150 O.2     9  HIS9       -0.2867
      5  CB        51.1300   51.5440   42.4450 C.3     9  HIS9        0.0745
      6  CG        50.8170   50.1330   42.0560 C.ar    9  HIS9        0.0817
      7  ND1       49.6880   49.4660   42.4920 N.ar    9  HIS9       -0.2268
      8  CD2       51.4540   49.2860   41.2120 C.ar    9  HIS9        0.1154
      9  CE1       49.6470   48.2630   41.9460 C.ar    9  HIS9        0.1986
     10  NE2       50.7110   48.1230   41.1710 N.ar    9  HIS9       -0.2212
     11  N         51.5660   43.8690   47.6030 N.3    15  GLU15      -0.1231
     12  CA        50.8570   43.3630   46.4150 C.3    15  GLU15       0.1699
     13  C         51.4490   43.8830   45.0850 C.2    15  GLU15       0.2593
     14  O         50.9450   43.5680   44.0460 O.2    15  GLU15      -0.2718
     15  CB        49.3620   43.7680   46.4810 C.3    15  GLU15       0.0402
     16  CG        48.7930   43.8320   47.9200 C.3    15  GLU15       0.1161
     17  CD        47.6260   44.8030   48.0440 C.2    15  GLU15       0.3649
     18  OE1       47.8020   45.9900   48.5000 O.co2  15  GLU15      -0.2457
     19  OE2       46.5220   44.3600   47.6450 O.co2  15  GLU15      -0.2457
     20  N         52.5090   44.6980   45.1300 N.am   16  SER16      -0.1938
     21  CA        52.9930   45.3440   43.9090 C.3    16  SER16       0.2055
     22  C         54.5090   45.2320   43.8070 C.2    16  SER16       0.2643
     23  O         55.2260   45.6090   44.7420 O.2    16  SER16      -0.2714
     24  CB        52.5890   46.8260   43.8900 C.3    16  SER16       0.2130
     25  OG        53.4160   47.5880   42.9960 O.3    16  SER16      -0.2179
     26  N         54.9740   44.7280   42.6880 N.am   17  ARG17      -0.1963
     27  CA        56.4190   44.6920   42.3760 C.3    17  ARG17       0.1729
     28  C         57.0460   46.1060   42.2710 C.2    17  ARG17       0.2616
     29  O         58.1760   46.3620   42.7510 O.2    17  ARG17      -0.2715
     30  CB        56.5990   44.0020   41.0330 C.3    17  ARG17       0.0348
     31  CG        56.3920   42.4850   41.0940 C.3    17  ARG17       0.0492
     32  CD        55.8420   42.0380   39.7720 C.3    17  ARG17       0.2205
     33  NE        55.3580   40.6570   39.8100 N.pl3  17  ARG17      -0.0865
     34  CZ        54.5400   40.1150   38.9070 C.cat  17  ARG17       0.5346
     35  NH1       54.0540   40.8580   37.9020 N.pl3  17  ARG17       0.1354
     36  NH2       54.1780   38.8290   39.0220 N.pl3  17  ARG17       0.1354
     37  N         56.3580   47.0140   41.5950 N.am   18  SER18      -0.1950
     38  CA        56.9580   48.3670   41.5420 C.3    18  SER18       0.1924
     39  C         56.9300   49.1210   42.8740 C.2    18  SER18       0.2314
     40  O         57.8410   49.8630   43.1710 O.2    18  SER18      -0.2863
     41  CB        56.3960   49.1970   40.3900 C.3    18  SER18       0.2116
     42  OG        55.0040   49.3000   40.4880 O.3    18  SER18      -0.2180
     43  N         53.0720   50.6280   37.6730 N.3   101  PRO101     -0.2116
     44  CA        53.0430   49.4720   36.7970 C.3   101  PRO101      0.1372
     45  C         52.7430   49.9230   35.3450 C.2   101  PRO101      0.2244
     46  O         52.2000   51.0280   35.0960 O.2   101  PRO101     -0.2868
     47  CB        51.8300   48.6670   37.3280 C.3   101  PRO101      0.0268
     48  CG        50.8550   49.7580   37.7490 C.3   101  PRO101      0.0207
     49  CD        51.7140   50.9430   38.1940 C.3   101  PRO101      0.0892
     50  N         50.3460   49.5080   32.3980 N.3   102  TRP102     -0.1227
     51  CA        48.9830   49.0810   32.1200 C.3   102  TRP102      0.1737
     52  C         48.6340   49.4610   30.6820 C.2   102  TRP102      0.2595
     53  O         48.5670   50.6230   30.3330 O.2   102  TRP102     -0.2718
     54  CB        47.9530   49.6520   33.1010 C.3   102  TRP102      0.0564
     55  CG        48.0460   49.1090   34.4940 C.ar  102  TRP102      0.0003
     56  CD1       48.6660   47.9390   34.9170 C.ar  102  TRP102      0.0946
     57  CD2       47.4760   49.7070   35.6550 C.ar  102  TRP102      0.0152
     58  NE1       48.5090   47.7870   36.2800 N.ar  102  TRP102     -0.2442
     59  CE2       47.7610   48.8540   36.7530 C.ar  102  TRP102      0.0810
     60  CE3       46.6970   50.8630   35.8680 C.ar  102  TRP102      0.0012
     61  CZ2       47.3300   49.1450   38.0520 C.ar  102  TRP102      0.0191
     62  CZ3       46.2750   51.1540   37.1940 C.ar  102  TRP102      0.0001
     63  CH2       46.6010   50.3150   38.2460 C.ar  102  TRP102      0.0015
     64  N         48.4930   48.4330   29.8570 N.am  103  ASN103     -0.1960
     65  CA        48.1890   48.5650   28.4380 C.3   103  ASN103      0.1819
     66  C         49.1670   49.4530   27.6800 C.2   103  ASN103      0.2621
     67  O         48.7780   50.4540   27.1570 O.2   103  ASN103     -0.2715
     68  CB        46.7200   48.9510   28.2660 C.3   103  ASN103      0.1195
     69  CG        45.8050   47.8980   28.8600 C.2   103  ASN103      0.2630
     70  OD1       45.9550   46.7080   28.5680 O.2   103  ASN103     -0.2716
     71  ND2       44.9780   48.2930   29.7880 N.am  103  ASN103     -0.0877
     72  N         50.4610   49.1270   27.7620 N.am  104  LEU104     -0.1977
     73  CA        51.5610   49.8730   27.0810 C.3   104  LEU104      0.1596
     74  C         51.6640   51.3650   27.3890 C.2   104  LEU104      0.2287
     75  O         52.1410   52.1400   26.5270 O.2   104  LEU104     -0.2864
     76  CB        51.4120   49.7610   25.5630 C.3   104  LEU104      0.0297
     77  CG        51.1560   48.3270   25.0780 C.3   104  LEU104      0.0022
     78  CD1       50.4050   48.3470   23.7340 C.3   104  LEU104      0.0001
     79  CD2       52.5220   47.5610   25.0240 C.3   104  LEU104      0.0001
     80  N         57.2280   48.4070   36.7130 N.3   145  SER145     -0.1202
     81  CA        57.1060   46.9500   36.4790 C.3   145  SER145      0.2020
     82  C         56.2430   46.6430   35.2480 C.2   145  SER145      0.2619
     83  O         55.1480   47.2500   35.0500 O.2   145  SER145     -0.2717
     84  CB        56.6320   46.2030   37.7230 C.3   145  SER145      0.2103
     85  OG        56.7710   44.7740   37.5680 O.3   145  SER145     -0.2182
     86  N         56.7630   45.7280   34.4060 N.am  146  ASN146     -0.1960
     87  CA        56.1150   45.3580   33.1380 C.3   146  ASN146      0.1819
     88  C         55.9380   43.8410   33.1120 C.2   146  ASN146      0.2622
     89  O         56.8200   43.1010   33.6140 O.2   146  ASN146     -0.2715
     90  CB        57.0320   45.6750   31.9280 C.3   146  ASN146      0.1195
     91  CG        57.5470   47.1040   31.9000 C.2   146  ASN146      0.2630
     92  OD1       56.8940   48.0120   32.3840 O.2   146  ASN146     -0.2716
     93  ND2       58.7330   47.3030   31.2990 N.am  146  ASN146     -0.0877
     94  N         54.8440   43.3750   32.4980 N.am  147  GLY147     -0.1940
     95  CA        54.5880   41.9330   32.3260 C.3   147  GLY147      0.2014
     96  C         55.7150   41.2870   31.5330 C.2   147  GLY147      0.2639
     97  O         56.3260   40.3190   31.9940 O.2   147  GLY147     -0.2714
     98  N         56.0340   41.8460   30.3710 N.am  148  GLY148     -0.1954
     99  CA        57.0920   41.2580   29.5140 C.3   148  GLY148      0.1869
    100  C         58.3980   42.0410   29.4970 C.2   148  GLY148      0.2309
    101  O         58.5750   42.9630   30.3010 O.2   148  GLY148     -0.2863
    102  N         60.7280   44.6820   27.8470 N.3   150  TYR150     -0.1241
    103  CA        60.7290   45.7950   26.9350 C.3   150  TYR150      0.1605
    104  C         62.1410   46.2960   27.0820 C.2   150  TYR150      0.2264
    105  O         62.6990   46.2970   28.1940 O.2   150  TYR150     -0.2867
    106  CB        59.6710   46.8250   27.3500 C.3   150  TYR150      0.0534
    107  CG        58.2400   46.3290   27.1540 C.ar  150  TYR150     -0.0201
    108  CD1       57.5510   46.5700   25.9600 C.ar  150  TYR150     -0.0009
    109  CD2       57.5900   45.6120   28.1550 C.ar  150  TYR150     -0.0009
    110  CE1       56.2400   46.1180   25.7690 C.ar  150  TYR150      0.0417
    111  CE2       56.2980   45.1310   27.9780 C.ar  150  TYR150      0.0417
    112  CZ        55.6110   45.3820   26.7920 C.ar  150  TYR150      0.1957
    113  OH        54.2960   44.9310   26.6440 O.3   150  TYR150     -0.2866
    114  N         61.2920   46.2630   36.4250 N.3   177  ILE177     -0.1245
    115  CA        61.0310   44.9360   36.9960 C.3   177  ILE177      0.1561
    116  C         60.1090   44.2200   35.9920 C.2   177  ILE177      0.2260
    117  O         58.9020   44.3880   35.9910 O.2   177  ILE177     -0.2867
    118  CB        60.4150   45.0100   38.4060 C.3   177  ILE177      0.0252
    119  CG1       61.1950   45.9770   39.3570 C.3   177  ILE177      0.0019
    120  CG2       60.3330   43.6290   39.0720 C.3   177  ILE177      0.0019
    121  CD1       60.6890   47.3980   39.4160 C.3   177  ILE177      0.0001
    122  N         58.2280   38.7800   34.8730 N.3   180  ILE180     -0.1231
    123  CA        57.7730   37.7950   35.8710 C.3   180  ILE180      0.1692
    124  C         56.4410   37.1150   35.4730 C.2   180  ILE180      0.2592
    125  O         56.2530   35.8980   35.6740 O.2   180  ILE180     -0.2718
    126  CB        57.6420   38.4000   37.2460 C.3   180  ILE180      0.0266
    127  CG1       59.0070   38.9120   37.7100 C.3   180  ILE180      0.0019
    128  CG2       57.1290   37.3580   38.2290 C.3   180  ILE180      0.0020
    129  CD1       58.8710   39.8770   38.8280 C.3   180  ILE180      0.0001
    130  N         55.5370   37.9040   34.8850 N.am  181  ASP181     -0.1960
    131  CA        54.3260   37.3200   34.2840 C.3   181  ASP181      0.1840
    132  C         54.6420   36.2620   33.2120 C.2   181  ASP181      0.2622
    133  O         53.9420   35.2680   33.1260 O.2   181  ASP181     -0.2715
    134  CB        53.4340   38.4350   33.7100 C.3   181  ASP181      0.1450
    135  CG        52.8070   39.3240   34.8150 C.2   181  ASP181      0.3671
    136  OD1       52.8920   38.9450   36.0100 O.co2 181  ASP181     -0.2456
    137  OD2       52.2100   40.3800   34.4770 O.co2 181  ASP181     -0.2456
    138  N         55.6750   36.4670   32.3950 N.am  182  HIS182     -0.1973
    139  CA        56.0940   35.4340   31.4450 C.3   182  HIS182      0.1656
    140  C         56.8060   34.2230   32.0620 C.2   182  HIS182      0.2291
    141  O         56.6650   33.0660   31.5740 O.2   182  HIS182     -0.2864
    142  CB        56.9290   36.0170   30.2920 C.3   182  HIS182      0.0771
    143  CG        56.1680   36.9830   29.4390 C.ar  182  HIS182      0.0820
    144  ND1       54.7880   37.0690   29.4640 N.ar  182  HIS182     -0.2267
    145  CD2       56.5850   37.9010   28.5360 C.ar  182  HIS182      0.1154
    146  CE1       54.3910   38.0130   28.6290 C.ar  182  HIS182      0.1986
    147  NE2       55.4620   38.5240   28.0440 N.ar  182  HIS182     -0.2212
@<TRIPOS>BOND
     1    78    77    1
     2    79    77    1
     3    77    76    1
     4    76    73    1
     5   110   108   ar
     6   110   112   ar
     7   108   107   ar
     8    75    74    2
     9   113   112    1
    10   112   111   ar
    11   103   104    1
    12   103   106    1
    13   103   102    1
    14    73    74    1
    15    73    72    1
    16   104   105    2
    17   107   106    1
    18   107   109   ar
    19    67    66    2
    20    66    72   am
    21    66    65    1
    22   111   109   ar
    23   147   145   ar
    24   147   146   ar
    25    68    65    1
    26    68    69    1
    27    65    64    1
    28   145   143   ar
    29    70    69    2
    30   146   144   ar
    31    69    71   am
    32   143   144   ar
    33   143   142    1
    34   100    99    1
    35   100   101    2
    36    99    98    1
    37    64    52   am
    38   142   139    1
    39    53    52    2
    40    98    96   am
    41    52    51    1
    42    93    91   am
    43   139   140    1
    44   139   138    1
    45    96    97    2
    46    96    95    1
    47   141   140    2
    48    91    90    1
    49    91    92    2
    50    90    87    1
    51    51    50    1
    52    51    54    1
    53    95    94    1
    54   138   132   am
    55    94    88   am
    56    54    55    1
    57    88    87    1
    58    88    89    2
    59   133   132    2
    60    87    86    1
    61   132   131    1
    62   134   131    1
    63   134   135    1
    64   131   130    1
    65    86    82   am
    66   137   135   ar
    67    55    56   ar
    68    55    57   ar
    69   135   136   ar
    70   122   123    1
    71   130   124   am
    72    56    58   ar
    73    83    82    2
    74    46    45    2
    75    82    81    1
    76    45    44    1
    77   124   125    2
    78   124   123    1
    79    57    60   ar
    80    57    59   ar
    81    60    62   ar
    82   123   126    1
    83   117   116    2
    84   116   115    1
    85    58    59   ar
    86   114   115    1
    87    81    80    1
    88    81    84    1
    89    59    61   ar
    90    44    47    1
    91    44    43    1
    92   115   118    1
    93    62    63   ar
    94   126   127    1
    95   126   128    1
    96    47    48    1
    97    85    84    1
    98    43    49    1
    99   127   129    1
   100    48    49    1
   101    35    34    1
   102    61    63   ar
   103   118   120    1
   104   118   119    1
   105    34    36    1
   106    34    33    2
   107   119   121    1
   108    32    33    1
   109    32    31    1
   110    41    42    1
   111    41    38    1
   112    30    31    1
   113    30    27    1
   114    10     8   ar
   115    10     9   ar
   116     8     6   ar
   117    38    37    1
   118    38    39    1
   119    37    28   am
   120     9     7   ar
   121     1     2    1
   122     2     5    1
   123     2     3    1
   124     6     5    1
   125     6     7   ar
   126    28    27    1
   127    28    29    2
   128    27    26    1
   129    26    22   am
   130    39    40    2
   131    25    24    1
   132     3     4    2
   133    22    21    1
   134    22    23    2
   135    24    21    1
   136    21    20    1
   137    14    13    2
   138    13    20   am
   139    13    12    1
   140    12    15    1
   141    12    11    1
   142    15    16    1
   143    19    17   ar
   144    16    17    1
   145    17    18   ar
