@<TRIPOS>MOLECULE
tmp/2hq9B00.pdb
 84 78 0 0 0
SMALL
GASTEIGER

@<TRIPOS>ATOM
      1  N         35.0080   50.6090   23.5380 N.3    64  GLN64      -0.1245
      2  CA        35.4250   51.0100   22.2240 C.3    64  GLN64       0.1566
      3  C         34.2460   51.5120   21.3890 C.2    64  GLN64       0.2260
      4  O         33.1780   50.8760   21.3360 O.2    64  GLN64      -0.2867
      5  CB        36.1240   49.8390   21.5140 C.3    64  GLN64       0.0367
      6  CG        36.7820   50.2630   20.2210 C.3    64  GLN64       0.0905
      7  CD        35.8410   50.0980   19.0100 C.2    64  GLN64       0.2608
      8  OE1       34.9140   49.2600   19.0220 O.2    64  GLN64      -0.2717
      9  NE2       36.0870   50.8860   17.9610 N.am   64  GLN64      -0.0878
     10  N         33.2740   53.5900   17.6080 N.3    66  ASP66      -0.1239
     11  CA        33.7810   54.0990   16.3480 C.3    66  ASP66       0.1674
     12  C         32.7150   54.5830   15.4020 C.2    66  ASP66       0.2266
     13  O         31.5400   54.3440   15.6060 O.2    66  ASP66      -0.2867
     14  CB        34.6950   53.0760   15.6500 C.3    66  ASP66       0.1410
     15  CG        34.0060   51.7550   15.3990 C.2    66  ASP66       0.3668
     16  OD1       32.9330   51.7610   14.7580 O.co2  66  ASP66      -0.2456
     17  OD2       34.5420   50.7150   15.8600 O.co2  66  ASP66      -0.2456
     18  N         36.6160   54.8010    2.8400 N.3    72  ARG72      -0.1245
     19  CA        36.9270   53.7470    3.8020 C.3    72  ARG72       0.1563
     20  C         37.4250   54.3160    5.1470 C.2    72  ARG72       0.2260
     21  O         37.8820   53.5560    6.0130 O.2    72  ARG72      -0.2867
     22  CB        37.9770   52.7830    3.1940 C.3    72  ARG72       0.0307
     23  CG        37.3180   51.8840    2.1810 C.3    72  ARG72       0.0489
     24  CD        36.5670   50.7460    2.8350 C.3    72  ARG72       0.2205
     25  NE        37.3660   49.9730    3.7740 N.pl3  72  ARG72      -0.0865
     26  CZ        37.0790   49.8400    5.0700 C.cat  72  ARG72       0.5346
     27  NH1       36.0180   50.4480    5.6140 N.pl3  72  ARG72       0.1354
     28  NH2       37.9110   49.1050    5.8290 N.pl3  72  ARG72       0.1354
     29  N         37.5740   56.1330    8.9700 N.3    74  TRP74      -0.1241
     30  CA        36.9420   55.8690   10.2540 C.3    74  TRP74       0.1605
     31  C         37.6620   56.5870   11.4080 C.2    74  TRP74       0.2264
     32  O         38.8020   57.0630   11.2620 O.2    74  TRP74      -0.2867
     33  CB        36.8880   54.3750   10.5540 C.3    74  TRP74       0.0550
     34  CG        38.1880   53.6740   10.4590 C.ar   74  TRP74       0.0003
     35  CD1       38.6380   52.9550    9.3830 C.ar   74  TRP74       0.0946
     36  CD2       39.2210   53.5730   11.4690 C.ar   74  TRP74       0.0152
     37  NE1       39.8970   52.4330    9.6490 N.ar   74  TRP74      -0.2442
     38  CE2       40.2720   52.7960   10.9210 C.ar   74  TRP74       0.0810
     39  CE3       39.3770   54.0860   12.7730 C.ar   74  TRP74       0.0012
     40  CZ2       41.4530   52.5200   11.6320 C.ar   74  TRP74       0.0191
     41  CZ3       40.5430   53.8010   13.4720 C.ar   74  TRP74       0.0001
     42  CH2       41.5720   53.0340   12.8980 C.ar   74  TRP74       0.0015
     43  N         38.0200   55.9720   15.7270 N.3    76  SER76      -0.1217
     44  CA        37.7500   55.0270   16.8240 C.3    76  SER76       0.1889
     45  C         38.3080   55.6170   18.1060 C.2    76  SER76       0.2288
     46  O         39.4100   56.2060   18.0670 O.2    76  SER76      -0.2866
     47  CB        38.4810   53.7120   16.5400 C.3    76  SER76       0.2089
     48  OG        38.4000   52.8020   17.6410 O.3    76  SER76      -0.2183
     49  N         39.0940   54.5020   22.3060 N.3    78  VAL78      -0.1245
     50  CA        39.1290   53.5180   23.3720 C.3    78  VAL78       0.1561
     51  C         39.1550   54.2240   24.7050 C.2    78  VAL78       0.2260
     52  O         39.9810   55.1270   24.9340 O.2    78  VAL78      -0.2867
     53  CB        40.2580   52.4750   23.2180 C.3    78  VAL78       0.0252
     54  CG1       40.2720   51.5250   24.4110 C.3    78  VAL78       0.0019
     55  CG2       40.0610   51.7010   21.9250 C.3    78  VAL78       0.0019
     56  N         39.3580   53.7740   28.8620 N.3    80  ASP80      -0.1239
     57  CA        39.6400   52.9280   29.9760 C.3    80  ASP80       0.1674
     58  C         38.9640   53.5160   31.1630 C.2    80  ASP80       0.2266
     59  O         39.1020   54.6970   31.5060 O.2    80  ASP80      -0.2867
     60  CB        41.1190   52.6700   30.0950 C.3    80  ASP80       0.1410
     61  CG        41.6710   51.9540   28.8120 C.2    80  ASP80       0.3668
     62  OD1       41.0240   50.9800   28.2430 O.co2  80  ASP80      -0.2456
     63  OD2       42.7380   52.3910   28.3490 O.co2  80  ASP80      -0.2456
     64  N         41.8630   57.3470   24.4120 N.3   130  SER130     -0.1202
     65  CA        42.7070   57.4850   23.2480 C.3   130  SER130      0.2020
     66  C         41.8370   57.3530   22.0070 C.2   130  SER130      0.2619
     67  O         40.7410   56.7950   22.0650 O.2   130  SER130     -0.2717
     68  CB        43.7890   56.4080   23.2100 C.3   130  SER130      0.2103
     69  OG        43.1550   55.1320   23.0670 O.3   130  SER130     -0.2182
     70  N         42.3360   57.8890   20.9000 N.am  131  GLY131     -0.1942
     71  CA        41.5950   57.9170   19.6400 C.3   131  GLY131      0.2014
     72  C         42.5310   57.6970   18.4620 C.2   131  GLY131      0.2638
     73  O         43.7130   58.0330   18.5260 O.2   131  GLY131     -0.2714
     74  N         41.9880   57.1210   17.3920 N.am  132  ARG132     -0.1977
     75  CA        42.6850   56.9230   16.1410 C.3   132  ARG132      0.1597
     76  C         41.7790   57.3040   14.9890 C.2   132  ARG132      0.2287
     77  O         40.5900   57.0710   15.0460 O.2   132  ARG132     -0.2864
     78  CB        43.0430   55.4520   15.9020 C.3   132  ARG132      0.0334
     79  CG        44.0490   54.8410   16.8460 C.3   132  ARG132      0.0492
     80  CD        45.4300   55.2880   16.4940 C.3   132  ARG132      0.2205
     81  NE        46.4450   54.8270   17.4480 N.pl3 132  ARG132     -0.0865
     82  CZ        47.1810   53.7280   17.3100 C.cat 132  ARG132      0.5346
     83  NH1       47.0550   52.9300   16.2530 N.pl3 132  ARG132      0.1354
     84  NH2       48.0900   53.4440   18.2260 N.pl3 132  ARG132      0.1354
@<TRIPOS>BOND
     1    23    24    1
     2    23    22    1
     3    24    25    1
     4    18    19    1
     5    22    19    1
     6    25    26    2
     7    19    20    1
     8    26    27    1
     9    26    28    1
    10    20    21    2
    11    29    30    1
    12    35    37   ar
    13    35    34   ar
    14    37    38   ar
    15    30    33    1
    16    30    31    1
    17    34    33    1
    18    34    36   ar
    19    38    36   ar
    20    38    40   ar
    21    32    31    2
    22    36    39   ar
    23    40    42   ar
    24    39    41   ar
    25    42    41   ar
    26    16    15   ar
    27    76    77    2
    28    76    75    1
    29    15    14    1
    30    15    17   ar
    31    12    13    2
    32    12    11    1
    33    14    11    1
    34    43    44    1
    35    78    75    1
    36    78    79    1
    37    75    74    1
    38    83    82    1
    39    11    10    1
    40    80    79    1
    41    80    81    1
    42    47    44    1
    43    47    48    1
    44    44    45    1
    45    82    81    2
    46    82    84    1
    47    74    72   am
    48     9     7   am
    49    46    45    2
    50    72    73    2
    51    72    71    1
    52     7     8    2
    53     7     6    1
    54    71    70    1
    55     6     5    1
    56    70    66   am
    57     4     3    2
    58     3     2    1
    59     5     2    1
    60    55    53    1
    61    66    67    2
    62    66    65    1
    63     2     1    1
    64    49    50    1
    65    69    68    1
    66    68    65    1
    67    53    50    1
    68    53    54    1
    69    65    64    1
    70    50    51    1
    71    51    52    2
    72    62    61   ar
    73    63    61   ar
    74    61    60    1
    75    56    57    1
    76    57    60    1
    77    57    58    1
    78    58    59    2
