@<TRIPOS>MOLECULE
tmp/2hq9B01.pdb
 127 130 0 0 0
SMALL
GASTEIGER

@<TRIPOS>ATOM
      1  N         26.4990   53.6290   20.4780 N.3    19  VAL19      -0.1245
      2  CA        26.7840   52.2410   20.6790 C.3    19  VAL19       0.1561
      3  C         28.2820   52.0640   20.8210 C.2    19  VAL19       0.2260
      4  O         29.0860   52.7220   20.1550 O.2    19  VAL19      -0.2867
      5  CB        26.1860   51.3400   19.5620 C.3    19  VAL19       0.0252
      6  CG1       26.8690   51.5520   18.2640 C.3    19  VAL19       0.0019
      7  CG2       26.2880   49.8440   19.9620 C.3    19  VAL19       0.0019
      8  N         35.4910   39.6020   28.7060 N.3    31  TYR31      -0.1241
      9  CA        34.1660   39.4080   28.1990 C.3    31  TYR31       0.1605
     10  C         33.6980   40.7070   27.5800 C.2    31  TYR31       0.2264
     11  O         33.8190   41.7400   28.1970 O.2    31  TYR31      -0.2867
     12  CB        33.2900   38.9500   29.3520 C.3    31  TYR31       0.0534
     13  CG        31.8470   38.8080   29.0500 C.ar   31  TYR31      -0.0201
     14  CD1       31.4030   38.0410   27.9800 C.ar   31  TYR31      -0.0009
     15  CD2       30.9060   39.4450   29.8100 C.ar   31  TYR31      -0.0009
     16  CE1       30.0290   37.9270   27.7180 C.ar   31  TYR31       0.0417
     17  CE2       29.5220   39.3220   29.5480 C.ar   31  TYR31       0.0417
     18  CZ        29.1010   38.5740   28.5350 C.ar   31  TYR31       0.1957
     19  OH        27.7430   38.4220   28.3480 O.3    31  TYR31      -0.2866
     20  N         30.7330   42.7580   25.1180 N.3    33  VAL33      -0.1231
     21  CA        29.4030   42.7750   24.5110 C.3    33  VAL33       0.1678
     22  C         29.0480   44.1800   24.0220 C.2    33  VAL33       0.2434
     23  O         29.5970   45.1460   24.5100 O.2    33  VAL33      -0.2733
     24  CB        28.3070   42.3240   25.5120 C.3    33  VAL33       0.0265
     25  CG1       28.5060   40.8780   25.8790 C.3    33  VAL33       0.0020
     26  CG2       28.3230   43.2150   26.7590 C.3    33  VAL33       0.0020
     27  N         28.1250   44.2790   23.0680 N.am   34  PRO34      -0.2718
     28  CA        27.6960   45.5940   22.6470 C.3    34  PRO34       0.1535
     29  C         26.7530   46.2490   23.6760 C.2    34  PRO34       0.2598
     30  O         25.9500   45.5630   24.3340 O.2    34  PRO34      -0.2715
     31  CB        26.9920   45.3270   21.3280 C.3    34  PRO34       0.0310
     32  CG        26.5610   43.8880   21.3620 C.3    34  PRO34       0.0237
     33  CD        27.4620   43.1840   22.3160 C.3    34  PRO34       0.0939
     34  N         26.7850   47.5720   23.7210 N.am   35  LEU35      -0.1964
     35  CA        26.0040   48.3250   24.6810 C.3    35  LEU35       0.1728
     36  C         25.6300   49.6840   24.1310 C.2    35  LEU35       0.2616
     37  O         26.4590   50.3410   23.5110 O.2    35  LEU35      -0.2715
     38  CB        26.8310   48.5150   25.9270 C.3    35  LEU35       0.0311
     39  CG        26.1390   49.0990   27.1560 C.3    35  LEU35       0.0022
     40  CD1       25.6470   47.9710   28.0710 C.3    35  LEU35       0.0001
     41  CD2       27.1240   49.9960   27.8630 C.3    35  LEU35       0.0001
     42  N         24.3870   50.1020   24.3640 N.am   36  TYR36      -0.1974
     43  CA        23.9750   51.4570   24.0270 C.3    36  TYR36       0.1639
     44  C         24.3470   52.3440   25.1880 C.2    36  TYR36       0.2290
     45  O         24.1340   51.9580   26.3590 O.2    36  TYR36      -0.2864
     46  CB        22.4840   51.5150   23.8140 C.3    36  TYR36       0.0560
     47  CG        22.0070   50.9590   22.5260 C.ar   36  TYR36      -0.0198
     48  CD1       22.5420   51.3910   21.3210 C.ar   36  TYR36      -0.0009
     49  CD2       20.9570   50.0590   22.4950 C.ar   36  TYR36      -0.0009
     50  CE1       22.0870   50.8850   20.1060 C.ar   36  TYR36       0.0417
     51  CE2       20.4720   49.5630   21.2940 C.ar   36  TYR36       0.0417
     52  CZ        21.0350   49.9840   20.1080 C.ar   36  TYR36       0.1957
     53  OH        20.5810   49.4810   18.9250 O.3    36  TYR36      -0.2866
     54  N         21.9340   51.3150   30.7280 N.3    47  PHE47      -0.1227
     55  CA        21.0280   50.4510   31.4800 C.3    47  PHE47       0.1736
     56  C         21.3400   49.0300   31.0990 C.2    47  PHE47       0.2596
     57  O         21.7670   48.7780   29.9660 O.2    47  PHE47      -0.2718
     58  CB        19.5510   50.7690   31.1690 C.3    47  PHE47       0.0547
     59  CG        19.0760   52.0350   31.7920 C.ar   47  PHE47      -0.0202
     60  CD1       19.2360   53.2450   31.1360 C.ar   47  PHE47      -0.0042
     61  CD2       18.5030   52.0310   33.0570 C.ar   47  PHE47      -0.0042
     62  CE1       18.8700   54.4290   31.7460 C.ar   47  PHE47      -0.0003
     63  CE2       18.1400   53.2100   33.6470 C.ar   47  PHE47      -0.0003
     64  CZ        18.3050   54.4040   32.9810 C.ar   47  PHE47      -0.0000
     65  N         21.1400   48.1100   32.0370 N.am   48  SER48      -0.1952
     66  CA        21.2600   46.6820   31.7650 C.3    48  SER48       0.1924
     67  C         20.2130   45.9040   32.5750 C.2    48  SER48       0.2314
     68  O         19.7650   46.3530   33.6260 O.2    48  SER48      -0.2863
     69  CB        22.6800   46.1890   32.1270 C.3    48  SER48       0.2116
     70  OG        22.8180   44.7910   31.9010 O.3    48  SER48      -0.2180
     71  N         19.8630   42.4030   34.8760 N.3    49  PRO49      -0.2102
     72  CA        20.8290   41.5780   35.5960 C.3    49  PRO49       0.1504
     73  C         21.4760   40.5590   34.7000 C.2    49  PRO49       0.2576
     74  O         20.8370   40.0700   33.7640 O.2    49  PRO49      -0.2718
     75  CB        19.9700   40.8380   36.6120 C.3    49  PRO49       0.0282
     76  CG        18.8010   41.7250   36.8140 C.3    49  PRO49       0.0208
     77  CD        18.5350   42.3830   35.5100 C.3    49  PRO49       0.0893
     78  N         22.7140   40.1800   35.0020 N.am   50  GLY50      -0.1943
     79  CA        23.4180   39.1940   34.1680 C.3    50  GLY50       0.2014
     80  C         24.9180   39.2030   34.3160 C.2    50  GLY50       0.2639
     81  O         25.4550   39.9120   35.1560 O.2    50  GLY50      -0.2714
     82  N         25.5920   38.4250   33.4740 N.am   51  LYS51      -0.1963
     83  CA        27.0520   38.2500   33.5400 C.3    51  LYS51       0.1728
     84  C         27.8360   39.5300   33.5950 C.2    51  LYS51       0.2616
     85  O         28.6300   39.7220   34.5150 O.2    51  LYS51      -0.2715
     86  CB        27.5300   37.3880   32.3440 C.3    51  LYS51       0.0311
     87  CG        28.9180   36.8330   32.4540 C.3    51  LYS51       0.0038
     88  CD        29.3090   35.9470   31.2710 C.3    51  LYS51       0.0206
     89  CE        30.8010   35.7700   31.1660 C.3    51  LYS51       0.1093
     90  NZ        31.1470   34.6900   30.2000 N.3    51  LYS51      -0.1314
     91  N         27.6480   40.4220   32.6430 N.am   52  LYS52      -0.1977
     92  CA        28.4770   41.6340   32.6520 C.3    52  LYS52       0.1596
     93  C         28.2940   42.4680   33.9280 C.2    52  LYS52       0.2287
     94  O         29.2580   42.9860   34.4510 O.2    52  LYS52      -0.2864
     95  CB        28.2560   42.5090   31.4540 C.3    52  LYS52       0.0298
     96  CG        26.8940   43.0560   31.2990 C.3    52  LYS52       0.0038
     97  CD        26.7570   43.8300   29.9930 C.3    52  LYS52       0.0206
     98  CE        25.4570   44.5360   29.9000 C.3    52  LYS52       0.1093
     99  NZ        24.2590   43.6170   30.2060 N.3    52  LYS52      -0.1314
    100  N         15.2730   47.9610   21.7780 N.3   109  TRP109     -0.1227
    101  CA        15.9390   47.1550   20.7510 C.3   109  TRP109      0.1737
    102  C         16.8330   46.0150   21.2800 C.2   109  TRP109      0.2595
    103  O         17.3420   45.2360   20.4720 O.2   109  TRP109     -0.2718
    104  CB        16.7220   48.0340   19.7700 C.3   109  TRP109      0.0564
    105  CG        15.9160   49.1620   19.1940 C.ar  109  TRP109      0.0003
    106  CD1       14.5510   49.2410   19.0710 C.ar  109  TRP109      0.0946
    107  CD2       16.4320   50.3810   18.6610 C.ar  109  TRP109      0.0152
    108  NE1       14.1910   50.4400   18.5110 N.ar  109  TRP109     -0.2442
    109  CE2       15.3280   51.1590   18.2470 C.ar  109  TRP109      0.0810
    110  CE3       17.7260   50.9070   18.5170 C.ar  109  TRP109      0.0012
    111  CZ2       15.4810   52.4250   17.6650 C.ar  109  TRP109      0.0191
    112  CZ3       17.8810   52.1670   17.9480 C.ar  109  TRP109      0.0001
    113  CH2       16.7640   52.9130   17.5320 C.ar  109  TRP109      0.0015
    114  N         16.9950   45.8870   22.6020 N.am  110  TRP110     -0.1976
    115  CA        17.6890   44.7130   23.1780 C.3   110  TRP110      0.1640
    116  C         16.9640   44.0540   24.3440 C.2   110  TRP110      0.2290
    117  O         17.1790   42.8730   24.5990 O.2   110  TRP110     -0.2864
    118  CB        19.1220   45.0780   23.6390 C.3   110  TRP110      0.0576
    119  CG        19.1650   46.2110   24.6230 C.ar  110  TRP110      0.0006
    120  CD1       19.3770   47.5280   24.3420 C.ar  110  TRP110      0.0946
    121  CD2       19.0080   46.1280   26.0530 C.ar  110  TRP110      0.0152
    122  NE1       19.3600   48.2710   25.4920 N.ar  110  TRP110     -0.2442
    123  CE2       19.1250   47.4420   26.5590 C.ar  110  TRP110      0.0810
    124  CE3       18.7940   45.0690   26.9510 C.ar  110  TRP110      0.0012
    125  CZ2       19.0260   47.7310   27.9240 C.ar  110  TRP110      0.0191
    126  CZ3       18.6900   45.3540   28.3040 C.ar  110  TRP110      0.0001
    127  CH2       18.7840   46.6770   28.7760 C.ar  110  TRP110      0.0015
@<TRIPOS>BOND
     1   113   111   ar
     2   113   112   ar
     3   111   109   ar
     4   112   110   ar
     5   109   108   ar
     6   109   107   ar
     7     6     5    1
     8   108   106   ar
     9   110   107   ar
    10   107   105   ar
    11    53    52    1
    12   106   105   ar
    13   105   104    1
    14     5     7    1
    15     5     2    1
    16   104   101    1
    17    50    52   ar
    18    50    48   ar
    19    52    51   ar
    20     4     3    2
    21   103   102    2
    22     1     2    1
    23     2     3    1
    24   101   102    1
    25   101   100    1
    26   102   114   am
    27    51    49   ar
    28    48    47   ar
    29    31    32    1
    30    31    28    1
    31    32    33    1
    32    33    27    1
    33    49    47   ar
    34    47    46    1
    35   114   115    1
    36    28    27    1
    37    28    29    1
    38    27    22   am
    39   115   118    1
    40   115   116    1
    41    37    36    2
    42   118   119    1
    43    29    34   am
    44    29    30    2
    45    34    35    1
    46    46    43    1
    47    22    23    2
    48    22    21    1
    49    43    42    1
    50    43    44    1
    51    36    42   am
    52    36    35    1
    53   120   119   ar
    54   120   122   ar
    55   116   117    2
    56    21    20    1
    57    21    24    1
    58   119   121   ar
    59    35    38    1
    60    44    45    2
    61   122   123   ar
    62    24    25    1
    63    24    26    1
    64    38    39    1
    65   121   123   ar
    66   121   124   ar
    67   123   125   ar
    68   124   126   ar
    69    39    41    1
    70    39    40    1
    71    10    11    2
    72    10     9    1
    73    16    14   ar
    74    16    18   ar
    75   125   127   ar
    76    14    13   ar
    77     9     8    1
    78     9    12    1
    79   126   127   ar
    80    19    18    1
    81    18    17   ar
    82    13    12    1
    83    13    15   ar
    84    17    15   ar
    85    98    97    1
    86    98    99    1
    87    57    56    2
    88    97    96    1
    89    90    89    1
    90    54    55    1
    91    56    55    1
    92    56    65   am
    93    60    62   ar
    94    60    59   ar
    95    89    88    1
    96    58    55    1
    97    58    59    1
    98    88    87    1
    99    96    95    1
   100    95    92    1
   101    62    64   ar
   102    66    65    1
   103    66    69    1
   104    66    67    1
   105    59    61   ar
   106    70    69    1
   107    86    87    1
   108    86    83    1
   109    67    68    2
   110    91    92    1
   111    91    84   am
   112    92    93    1
   113    64    63   ar
   114    61    63   ar
   115    82    83    1
   116    82    80   am
   117    83    84    1
   118    84    85    2
   119    74    73    2
   120    93    94    2
   121    79    80    1
   122    79    78    1
   123    80    81    2
   124    73    78   am
   125    73    72    1
   126    71    77    1
   127    71    72    1
   128    77    76    1
   129    72    75    1
   130    75    76    1
