@<TRIPOS>MOLECULE
tmp/2hquA01.pdb
 81 77 0 0 0
SMALL
GASTEIGER

@<TRIPOS>ATOM
      1  N         25.4880   -4.8320    4.7240 N.3    56  VAL56      -0.1245
      2  CA        24.1490   -4.3280    4.5230 C.3    56  VAL56       0.1561
      3  C         24.2610   -2.8160    4.4180 C.2    56  VAL56       0.2260
      4  O         24.6710   -2.1430    5.3710 O.2    56  VAL56      -0.2867
      5  CB        23.1990   -4.7350    5.6700 C.3    56  VAL56       0.0252
      6  CG1       21.7850   -4.2390    5.4020 C.3    56  VAL56       0.0019
      7  CG2       23.2190   -6.2530    5.8670 C.3    56  VAL56       0.0019
      8  N         21.9100    0.7380   10.2360 N.3    71  GLY71      -0.1210
      9  CA        22.8910    0.5890   11.3190 C.3    71  GLY71       0.1956
     10  C         23.5250   -0.7780   11.2380 C.2    71  GLY71       0.2612
     11  O         23.1510   -1.5820   10.3900 O.2    71  GLY71      -0.2717
     12  N         24.5020   -1.0420   12.1060 N.am   72  ALA72      -0.1965
     13  CA        25.2280   -2.3160   12.0960 C.3    72  ALA72       0.1728
     14  C         25.7910   -2.6390   10.6930 C.2    72  ALA72       0.2617
     15  O         26.5570   -1.8440   10.1420 O.2    72  ALA72      -0.2715
     16  CB        24.3200   -3.4080   12.6030 C.3    72  ALA72       0.0334
     17  N         25.4410   -3.8020   10.1390 N.am   73  GLY73      -0.1940
     18  CA        25.6180   -4.0920    8.7100 C.3    73  GLY73       0.2014
     19  C         26.7200   -5.0580    8.3340 C.2    73  GLY73       0.2639
     20  O         27.0270   -5.2440    7.1440 O.2    73  GLY73      -0.2714
     21  N         27.3260   -5.6790    9.3330 N.am   74  VAL74      -0.1963
     22  CA        28.4760   -6.5390    9.0660 C.3    74  VAL74       0.1727
     23  C         28.0590   -8.0010    9.1180 C.2    74  VAL74       0.2616
     24  O         28.0710   -8.6090   10.1890 O.2    74  VAL74      -0.2715
     25  CB        29.6660   -6.2510   10.0420 C.3    74  VAL74       0.0290
     26  CG1       30.9720   -6.9630    9.5860 C.3    74  VAL74       0.0023
     27  CG2       29.8990   -4.7220   10.1740 C.3    74  VAL74       0.0023
     28  N         27.7000   -8.5550    7.9620 N.am   75  ILE75      -0.1963
     29  CA        27.3600   -9.9790    7.8770 C.3    75  ILE75       0.1727
     30  C         28.5910  -10.8210    7.5610 C.2    75  ILE75       0.2616
     31  O         29.1690  -10.7520    6.4650 O.2    75  ILE75      -0.2715
     32  CB        26.2160  -10.3100    6.8560 C.3    75  ILE75       0.0290
     33  CG1       25.0590   -9.3000    6.9320 C.3    75  ILE75       0.0022
     34  CG2       25.7270  -11.7560    7.0600 C.3    75  ILE75       0.0023
     35  CD1       24.0990   -9.4970    8.0720 C.3    75  ILE75       0.0001
     36  N         28.9710  -11.6210    8.5410 N.am   76  ASP76      -0.1971
     37  CA        30.1620  -12.4280    8.4530 C.3    76  ASP76       0.1709
     38  C         29.9720  -13.6620    7.5810 C.2    76  ASP76       0.2293
     39  O         28.8840  -14.2540    7.5260 O.2    76  ASP76      -0.2864
     40  CB        30.6160  -12.7960    9.8580 C.3    76  ASP76       0.1436
     41  CG        30.7260  -11.5720   10.7520 C.2    76  ASP76       0.3671
     42  OD1       29.8440  -11.3860   11.6050 O.co2  76  ASP76      -0.2456
     43  OD2       31.6640  -10.7660   10.5750 O.co2  76  ASP76      -0.2456
     44  N         28.2310  -16.5550    9.2850 N.3    79  TYR79      -0.1241
     45  CA        26.8660  -16.3990    9.8100 C.3    79  TYR79       0.1605
     46  C         25.8970  -17.2600    9.0320 C.2    79  TYR79       0.2264
     47  O         25.9150  -17.2610    7.7960 O.2    79  TYR79      -0.2867
     48  CB        26.3990  -14.9570    9.6900 C.3    79  TYR79       0.0534
     49  CG        25.0310  -14.6550   10.2530 C.ar   79  TYR79      -0.0201
     50  CD1       24.7690  -14.7870   11.6200 C.ar   79  TYR79      -0.0009
     51  CD2       24.0150  -14.1670    9.4260 C.ar   79  TYR79      -0.0009
     52  CE1       23.5440  -14.4570   12.1380 C.ar   79  TYR79       0.0417
     53  CE2       22.7750  -13.8330    9.9350 C.ar   79  TYR79       0.0417
     54  CZ        22.5430  -13.9770   11.2950 C.ar   79  TYR79       0.1957
     55  OH        21.3010  -13.6710   11.8140 O.3    79  TYR79      -0.2866
     56  N         19.2280  -15.8170   10.3920 N.3    82  ASN82      -0.1225
     57  CA        18.3960  -14.8480    9.6830 C.3    82  ASN82       0.1785
     58  C         19.1490  -13.5280    9.4450 C.2    82  ASN82       0.2597
     59  O         19.5870  -12.8800   10.4010 O.2    82  ASN82      -0.2718
     60  CB        17.1160  -14.6090   10.5080 C.3    82  ASN82       0.1169
     61  CG        15.9510  -14.0760    9.6800 C.2    82  ASN82       0.2627
     62  OD1       16.1400  -13.4540    8.6300 O.2    82  ASN82      -0.2716
     63  ND2       14.7290  -14.3010   10.1720 N.am   82  ASN82      -0.0877
     64  N         19.3220  -13.1390    8.1820 N.am   83  VAL83      -0.1966
     65  CA        19.9100  -11.8400    7.8980 C.3    83  VAL83       0.1727
     66  C         18.9180  -10.7690    8.3540 C.2    83  VAL83       0.2616
     67  O         17.7800  -10.7170    7.8750 O.2    83  VAL83      -0.2715
     68  CB        20.2360  -11.6220    6.3850 C.3    83  VAL83       0.0290
     69  CG1       20.8020  -10.2180    6.1710 C.3    83  VAL83       0.0023
     70  CG2       21.1890  -12.6880    5.8530 C.3    83  VAL83       0.0023
     71  N         19.3460   -9.9290    9.2890 N.am   84  GLY84      -0.1955
     72  CA        18.4910   -8.8460    9.8020 C.3    84  GLY84       0.1869
     73  C         18.9800   -7.4910    9.3400 C.2    84  GLY84       0.2309
     74  O         20.1770   -7.2490    9.3340 O.2    84  GLY84      -0.2863
     75  N         19.0660   -3.6120   10.2160 N.3    86  VAL86      -0.1245
     76  CA        18.7930   -2.6250   11.2560 C.3    86  VAL86       0.1561
     77  C         18.5090   -1.2940   10.5880 C.2    86  VAL86       0.2260
     78  O         19.4190   -0.6050   10.1400 O.2    86  VAL86      -0.2867
     79  CB        19.9480   -2.5150   12.2800 C.3    86  VAL86       0.0252
     80  CG1       19.5930   -1.5420   13.3960 C.3    86  VAL86       0.0019
     81  CG2       20.2400   -3.8920   12.8620 C.3    86  VAL86       0.0019
@<TRIPOS>BOND
     1     3     2    1
     2     3     4    2
     3     2     1    1
     4     2     5    1
     5     6     5    1
     6     5     7    1
     7    70    68    1
     8    69    68    1
     9    68    65    1
    10    31    30    2
    11    32    33    1
    12    32    34    1
    13    32    29    1
    14    33    35    1
    15    20    19    2
    16    39    38    2
    17    30    29    1
    18    30    36   am
    19    38    37    1
    20    47    46    2
    21    67    66    2
    22    29    28    1
    23    65    64    1
    24    65    66    1
    25    28    23   am
    26    64    58   am
    27    19    18    1
    28    19    21   am
    29    66    71   am
    30    37    36    1
    31    37    40    1
    32    62    61    2
    33    18    17    1
    34    46    45    1
    35    22    23    1
    36    22    21    1
    37    22    25    1
    38    23    24    2
    39    44    45    1
    40    71    72    1
    41    74    73    2
    42    73    72    1
    43    51    53   ar
    44    51    49   ar
    45    58    57    1
    46    58    59    2
    47    26    25    1
    48    61    63   am
    49    61    60    1
    50    57    56    1
    51    57    60    1
    52    48    45    1
    53    48    49    1
    54    40    41    1
    55    53    54   ar
    56    25    27    1
    57    17    14   am
    58    78    77    2
    59    15    14    2
    60    75    76    1
    61     8     9    1
    62    49    50   ar
    63    11    10    2
    64    43    41   ar
    65    77    76    1
    66    14    13    1
    67    41    42   ar
    68    10     9    1
    69    10    12   am
    70    76    79    1
    71    54    55    1
    72    54    52   ar
    73    50    52   ar
    74    13    12    1
    75    13    16    1
    76    79    81    1
    77    79    80    1
