@<TRIPOS>MOLECULE
tmp/2hqyA00.pdb
 112 106 0 0 0
SMALL
GASTEIGER

@<TRIPOS>ATOM
      1  N         43.9350   27.7380   23.5700 N.3   175  TRP175     -0.1241
      2  CA        42.5710   27.8360   23.0360 C.3   175  TRP175      0.1605
      3  C         42.5230   27.3020   21.6050 C.2   175  TRP175      0.2264
      4  O         41.5810   26.5970   21.2120 O.2   175  TRP175     -0.2867
      5  CB        42.1200   29.3110   23.0820 C.3   175  TRP175      0.0550
      6  CG        40.6690   29.5010   22.8020 C.ar  175  TRP175      0.0003
      7  CD1       39.6520   29.5940   23.7160 C.ar  175  TRP175      0.0946
      8  CD2       40.0670   29.6320   21.5120 C.ar  175  TRP175      0.0152
      9  NE1       38.4430   29.7680   23.0640 N.ar  175  TRP175     -0.2442
     10  CE2       38.6720   29.7920   21.7140 C.ar  175  TRP175      0.0810
     11  CE3       40.5690   29.6200   20.2000 C.ar  175  TRP175      0.0012
     12  CZ2       37.7670   29.9540   20.6500 C.ar  175  TRP175      0.0191
     13  CZ3       39.6700   29.7660   19.1320 C.ar  175  TRP175      0.0001
     14  CH2       38.2750   29.9340   19.3740 C.ar  175  TRP175      0.0015
     15  N         40.4570   24.2740   19.9290 N.3   179  ASN179     -0.1240
     16  CA        39.4830   24.6480   18.9020 C.3   179  ASN179      0.1653
     17  C         39.9160   24.2980   17.4620 C.2   179  ASN179      0.2266
     18  O         39.1660   24.5110   16.4970 O.2   179  ASN179     -0.2867
     19  CB        39.0570   26.1240   19.0960 C.3   179  ASN179      0.1155
     20  CG        38.0920   26.2910   20.2920 C.2   179  ASN179      0.2627
     21  OD1       36.8960   26.0460   20.1490 O.2   179  ASN179     -0.2716
     22  ND2       38.6180   26.6540   21.4840 N.am  179  ASN179     -0.0877
     23  N         38.1050   30.0190    9.9000 N.3   186  GLY186     -0.1210
     24  CA        37.6870   31.2820   10.5620 C.3   186  GLY186      0.1956
     25  C         38.5620   31.6180   11.7560 C.2   186  GLY186      0.2612
     26  O         39.0550   32.7250   11.9120 O.2   186  GLY186     -0.2717
     27  N         38.7900   30.6210   12.5950 N.am  187  THR187     -0.1952
     28  CA        39.4800   30.8460   13.8430 C.3   187  THR187      0.1897
     29  C         41.0100   30.8420   13.5880 C.2   187  THR187      0.2313
     30  O         41.7680   31.5120   14.3030 O.2   187  THR187     -0.2863
     31  CB        38.8720   29.7270   14.6860 C.3   187  THR187      0.1794
     32  OG1       37.9720   30.1460   15.7520 O.3   187  THR187     -0.2208
     33  CG2       39.5530   28.4670   14.6760 C.3   187  THR187      0.0378
     34  N         41.3990   34.3220   12.5790 N.3   190  GLU190     -0.1245
     35  CA        41.3430   35.1590   13.7800 C.3   190  GLU190      0.1567
     36  C         42.6780   35.1130   14.5080 C.2   190  GLU190      0.2260
     37  O         43.1370   36.1590   14.9750 O.2   190  GLU190     -0.2867
     38  CB        40.2630   34.6790   14.7690 C.3   190  GLU190      0.0388
     39  CG        40.0940   35.6910   15.8630 C.3   190  GLU190      0.1160
     40  CD        39.4840   35.1450   17.1600 C.2   190  GLU190      0.3649
     41  OE1       39.5970   33.9290   17.4460 O.co2 190  GLU190     -0.2457
     42  OE2       38.9140   35.9860   17.9160 O.co2 190  GLU190     -0.2457
     43  N         38.9390   36.0090   24.9820 N.3   237  LYS237     -0.1231
     44  CA        39.2330   34.5730   25.0380 C.3   237  LYS237      0.1693
     45  C         39.2850   34.1380   26.4730 C.2   237  LYS237      0.2591
     46  O         39.8170   34.8560   27.3200 O.2   237  LYS237     -0.2718
     47  CB        40.6000   34.2240   24.4290 C.3   237  LYS237      0.0285
     48  CG        40.7640   34.5000   22.9590 C.3   237  LYS237      0.0035
     49  CD        39.9420   33.5450   22.1490 C.3   237  LYS237      0.0206
     50  CE        40.2330   33.7570   20.6900 C.3   237  LYS237      0.1093
     51  NZ        39.3030   32.9190   19.9230 N.3   237  LYS237     -0.1314
     52  N         38.7490   32.9490   26.7500 N.am  238  ALA238     -0.1980
     53  CA        38.7910   32.4040   28.0930 C.3   238  ALA238      0.1597
     54  C         39.0210   30.8970   28.0640 C.2   238  ALA238      0.2287
     55  O         38.6760   30.2150   27.0760 O.2   238  ALA238     -0.2864
     56  CB        37.5150   32.7760   28.8770 C.3   238  ALA238      0.0319
     57  N         37.9570   27.5070   28.9130 N.3   240  THR240     -0.1218
     58  CA        36.5450   27.1040   28.9780 C.3   240  THR240      0.1862
     59  C         36.1810   26.3200   30.2460 C.2   240  THR240      0.2287
     60  O         35.0070   26.3010   30.6700 O.2   240  THR240     -0.2866
     61  CB        36.1050   26.3770   27.6750 C.3   240  THR240      0.1770
     62  OG1       34.6730   26.3340   27.6030 O.3   240  THR240     -0.2211
     63  CG2       36.7260   24.9810   27.5520 C.3   240  THR240      0.0375
     64  N         34.3080   34.4690   31.1060 N.3   246  TYR246     -0.1241
     65  CA        33.8820   35.4280   30.0640 C.3   246  TYR246      0.1605
     66  C         33.0810   36.5890   30.6580 C.2   246  TYR246      0.2264
     67  O         33.3260   37.7620   30.3210 O.2   246  TYR246     -0.2867
     68  CB        33.0720   34.7430   28.9510 C.3   246  TYR246      0.0534
     69  CG        33.9330   34.0710   27.8920 C.ar  246  TYR246     -0.0201
     70  CD1       33.9390   32.6780   27.7410 C.ar  246  TYR246     -0.0009
     71  CD2       34.7530   34.8370   27.0370 C.ar  246  TYR246     -0.0009
     72  CE1       34.7270   32.0550   26.7390 C.ar  246  TYR246      0.0417
     73  CE2       35.5550   34.2300   26.0520 C.ar  246  TYR246      0.0417
     74  CZ        35.5380   32.8420   25.9070 C.ar  246  TYR246      0.1957
     75  OH        36.3300   32.2390   24.9360 O.3   246  TYR246     -0.2866
     76  N         28.7560   36.3710   13.1550 N.3   270  LEU270     -0.1245
     77  CA        29.2050   35.5210   12.0250 C.3   270  LEU270      0.1561
     78  C         28.1970   34.4240   11.6510 C.2   270  LEU270      0.2260
     79  O         28.5380   33.4330   10.9650 O.2   270  LEU270     -0.2867
     80  CB        30.6040   34.9240   12.3050 C.3   270  LEU270      0.0270
     81  CG        31.7280   35.9360   12.5710 C.3   270  LEU270      0.0019
     82  CD1       33.0850   35.2240   12.6970 C.3   270  LEU270      0.0001
     83  CD2       31.7690   37.0240   11.4880 C.3   270  LEU270      0.0001
     84  N         26.9230   32.3880   13.6870 N.3   272  ILE272     -0.1231
     85  CA        27.1270   31.2660   14.6090 C.3   272  ILE272      0.1692
     86  C         26.0900   31.3630   15.7320 C.2   272  ILE272      0.2592
     87  O         26.0420   32.3500   16.4540 O.2   272  ILE272     -0.2718
     88  CB        28.5580   31.2510   15.1970 C.3   272  ILE272      0.0266
     89  CG1       29.5880   31.1310   14.0710 C.3   272  ILE272      0.0019
     90  CG2       28.7020   30.0990   16.2050 C.3   272  ILE272      0.0020
     91  CD1       30.9720   31.5670   14.4600 C.3   272  ILE272      0.0001
     92  N         25.2470   30.3360   15.8500 N.am  273  GLU273     -0.1966
     93  CA        24.0880   30.3600   16.7540 C.3   273  GLU273      0.1733
     94  C         24.4830   30.6420   18.2170 C.2   273  GLU273      0.2617
     95  O         23.8620   31.4770   18.8790 O.2   273  GLU273     -0.2715
     96  CB        23.2760   29.0610   16.6180 C.3   273  GLU273      0.0429
     97  CG        23.7900   27.9300   17.4990 C.3   273  GLU273      0.1163
     98  CD        22.9630   26.6450   17.4070 C.2   273  GLU273      0.3649
     99  OE1       21.7140   26.7170   17.3480 O.co2 273  GLU273     -0.2457
    100  OE2       23.5850   25.5580   17.4100 O.co2 273  GLU273     -0.2457
    101  N         25.5450   29.9890   18.6950 N.am  274  GLY274     -0.1940
    102  CA        26.0450   30.1820   20.0600 C.3   274  GLY274      0.2014
    103  C         26.4840   31.6020   20.3320 C.2   274  GLY274      0.2638
    104  O         26.1330   32.1850   21.3610 O.2   274  GLY274     -0.2714
    105  N         27.2430   32.1590   19.3950 N.am  275  LEU275     -0.1977
    106  CA        27.7570   33.5150   19.4800 C.3   275  LEU275      0.1596
    107  C         26.6080   34.5250   19.4300 C.2   275  LEU275      0.2287
    108  O         26.6260   35.5320   20.1430 O.2   275  LEU275     -0.2864
    109  CB        28.7140   33.7570   18.3180 C.3   275  LEU275      0.0297
    110  CG        29.9150   34.7090   18.3950 C.3   275  LEU275      0.0022
    111  CD1       30.7470   34.5570   19.6750 C.3   275  LEU275      0.0001
    112  CD2       30.7950   34.4740   17.1720 C.3   275  LEU275      0.0001
@<TRIPOS>BOND
     1    23    24    1
     2    24    25    1
     3    79    78    2
     4    83    81    1
     5    78    77    1
     6    25    26    2
     7    25    27   am
     8    77    80    1
     9    77    76    1
    10    80    81    1
    11    81    82    1
    12    34    35    1
    13    27    28    1
    14    29    28    1
    15    29    30    2
    16    84    85    1
    17    35    36    1
    18    35    38    1
    19    28    31    1
    20    89    91    1
    21    89    88    1
    22    36    37    2
    23    85    88    1
    24    85    86    1
    25    33    31    1
    26    31    32    1
    27    38    39    1
    28    88    90    1
    29    86    92   am
    30    86    87    2
    31    92    93    1
    32    39    40    1
    33    18    17    2
    34    96    93    1
    35    96    97    1
    36    93    94    1
    37    40    41   ar
    38    40    42   ar
    39   112   110    1
    40    99    98   ar
    41    98   100   ar
    42    98    97    1
    43    17    16    1
    44    94   101   am
    45    94    95    2
    46   109   110    1
    47   109   106    1
    48   110   111    1
    49   101   102    1
    50    16    19    1
    51    16    15    1
    52    19    20    1
    53    13    14   ar
    54    13    11   ar
    55    14    12   ar
    56   105   106    1
    57   105   103   am
    58   107   106    1
    59   107   108    2
    60    51    50    1
    61   102   103    1
    62    21    20    2
    63    11     8   ar
    64    20    22   am
    65   103   104    2
    66    12    10   ar
    67    50    49    1
    68     4     3    2
    69     8    10   ar
    70     8     6   ar
    71     3     2    1
    72    10     9   ar
    73    49    48    1
    74     6     5    1
    75     6     7   ar
    76    48    47    1
    77     2     5    1
    78     2     1    1
    79     9     7   ar
    80    47    44    1
    81    75    74    1
    82    43    44    1
    83    44    45    1
    84    74    73   ar
    85    74    72   ar
    86    73    71   ar
    87    45    52   am
    88    45    46    2
    89    72    70   ar
    90    52    53    1
    91    71    69   ar
    92    55    54    2
    93    63    61    1
    94    62    61    1
    95    61    58    1
    96    70    69   ar
    97    69    68    1
    98    54    53    1
    99    53    56    1
   100    57    58    1
   101    68    65    1
   102    58    59    1
   103    65    66    1
   104    65    64    1
   105    59    60    2
   106    67    66    2
