@<TRIPOS>MOLECULE
tmp/2hr6A00.pdb
 87 82 0 0 0
SMALL
GASTEIGER

@<TRIPOS>ATOM
      1  N         -0.6400   35.6380    6.5800 N.3    68  MET68      -0.1245
      2  CA         0.2760   35.0290    5.6050 C.3    68  MET68       0.1570
      3  C          0.7840   36.1390    4.6740 C.2    68  MET68       0.2261
      4  O         -0.0160   37.0110    4.2480 O.2    68  MET68      -0.2867
      5  CB        -0.4380   34.0110    4.7600 C.3    68  MET68       0.0387
      6  CG        -1.0210   32.7580    5.4920 C.3    68  MET68       0.0595
      7  SD        -1.7600   31.5820    4.2460 S.3    68  MET68      -0.1393
      8  CE        -0.7370   31.9080    2.9590 C.3    68  MET68       0.0692
      9  N         -4.2620   37.0420   -2.8010 N.3    84  ASN84      -0.1240
     10  CA        -5.0440   37.8980   -1.8950 C.3    84  ASN84       0.1653
     11  C         -4.1930   38.9490   -1.1600 C.2    84  ASN84       0.2266
     12  O         -4.6820   39.6250   -0.2700 O.2    84  ASN84      -0.2867
     13  CB        -5.8370   37.0440   -0.9010 C.3    84  ASN84       0.1155
     14  CG        -4.9880   35.9990   -0.1650 C.2    84  ASN84       0.2627
     15  OD1       -3.7740   35.8300   -0.4070 O.2    84  ASN84      -0.2716
     16  ND2       -5.6660   35.2240    0.7160 N.am   84  ASN84      -0.0877
     17  N         -2.9070   37.0550    3.5640 N.3    87  GLY87      -0.1210
     18  CA        -3.9070   36.0610    3.9870 C.3    87  GLY87       0.1956
     19  C         -4.2010   36.1680    5.4790 C.2    87  GLY87       0.2612
     20  O         -3.3030   35.9830    6.3000 O.2    87  GLY87      -0.2717
     21  N         -5.4310   36.4820    5.8450 N.am   88  LEU88      -0.1965
     22  CA        -5.7940   36.6990    7.2470 C.3    88  LEU88       0.1728
     23  C         -6.4490   35.4090    7.7840 C.2    88  LEU88       0.2616
     24  O         -7.4760   34.9410    7.2450 O.2    88  LEU88      -0.2715
     25  CB        -6.7660   37.8870    7.3980 C.3    88  LEU88       0.0311
     26  CG        -7.2920   38.2290    8.8020 C.3    88  LEU88       0.0022
     27  CD1       -6.1440   38.6330    9.6830 C.3    88  LEU88       0.0001
     28  CD2       -8.3350   39.3800    8.7550 C.3    88  LEU88       0.0001
     29  N         -5.8880   34.8620    8.8510 N.am   89  ILE89      -0.1963
     30  CA        -6.3790   33.5780    9.4540 C.3    89  ILE89       0.1727
     31  C         -7.0800   33.8460   10.7930 C.2    89  ILE89       0.2616
     32  O         -6.4760   34.3620   11.7410 O.2    89  ILE89      -0.2715
     33  CB        -5.2340   32.5560    9.6910 C.3    89  ILE89       0.0290
     34  CG1       -4.2310   32.4760    8.5210 C.3    89  ILE89       0.0022
     35  CG2       -5.8430   31.1940   10.0520 C.3    89  ILE89       0.0023
     36  CD1       -4.8130   32.1090    7.1440 C.3    89  ILE89       0.0001
     37  N         -8.3810   33.5910   10.8340 N.am   90  ASP90      -0.1971
     38  CA        -9.1960   33.7860   12.0440 C.3    90  ASP90       0.1709
     39  C         -8.9200   32.7630   13.1300 C.2    90  ASP90       0.2293
     40  O         -8.6260   31.6030   12.8450 O.2    90  ASP90      -0.2864
     41  CB       -10.6830   33.7290   11.6890 C.3    90  ASP90       0.1436
     42  CG       -11.0400   34.7790   10.6570 C.2    90  ASP90       0.3671
     43  OD1      -10.9530   35.9790   10.9630 O.co2  90  ASP90      -0.2456
     44  OD2      -11.2880   34.3900    9.5050 O.co2  90  ASP90      -0.2456
     45  N        -10.9410   29.5720   12.7530 N.3    93  TYR93      -0.1241
     46  CA       -10.8290   28.8050   11.5060 C.3    93  TYR93       0.1605
     47  C        -10.1250   27.4630   11.7880 C.2    93  TYR93       0.2264
     48  O         -9.0370   27.4370   12.3670 O.2    93  TYR93      -0.2867
     49  CB       -10.0420   29.5730   10.4370 C.3    93  TYR93       0.0534
     50  CG        -9.8430   28.8310    9.1100 C.ar   93  TYR93      -0.0201
     51  CD1       -8.6020   28.2990    8.7460 C.ar   93  TYR93      -0.0009
     52  CD2      -10.9010   28.6700    8.2400 C.ar   93  TYR93      -0.0009
     53  CE1       -8.4150   27.6600    7.5170 C.ar   93  TYR93       0.0417
     54  CE2      -10.7400   28.0250    7.0240 C.ar   93  TYR93       0.0417
     55  CZ        -9.5040   27.4910    6.6830 C.ar   93  TYR93       0.1957
     56  OH        -9.3900   26.8830    5.4640 O.3    93  TYR93      -0.2866
     57  N         -8.2140   23.5110    6.3100 N.3    96  GLN96      -0.1231
     58  CA        -6.8710   23.4710    5.7850 C.3    96  GLN96       0.1698
     59  C         -6.3500   24.8880    5.5160 C.2    96  GLN96       0.2592
     60  O         -7.0580   25.7380    4.9660 O.2    96  GLN96      -0.2718
     61  CB        -6.8060   22.6320    4.4940 C.3    96  GLN96       0.0381
     62  CG        -5.3650   22.4280    4.0540 C.3    96  GLN96       0.0905
     63  CD        -5.1890   21.4720    2.8690 C.2    96  GLN96       0.2608
     64  OE1       -4.1010   21.0440    2.6210 O.2    96  GLN96      -0.2717
     65  NE2       -6.2750   21.1400    2.1510 N.am   96  GLN96      -0.0878
     66  N         -5.1000   25.1340    5.8900 N.am   97  LEU97      -0.1966
     67  CA        -4.4640   26.4000    5.5240 C.3    97  LEU97       0.1728
     68  C         -4.0830   26.3250    4.0430 C.2    97  LEU97       0.2616
     69  O         -3.3290   25.4270    3.6350 O.2    97  LEU97      -0.2715
     70  CB        -3.2060   26.6570    6.3610 C.3    97  LEU97       0.0311
     71  CG        -3.3010   27.0610    7.8120 C.3    97  LEU97       0.0022
     72  CD1       -1.8630   27.3360    8.2770 C.3    97  LEU97       0.0001
     73  CD2       -4.2010   28.3270    8.0140 C.3    97  LEU97       0.0001
     74  N         -4.6180   27.2610    3.2500 N.am   98  MET98      -0.1977
     75  CA        -4.4020   27.3280    1.8010 C.3    98  MET98       0.1605
     76  C         -3.6060   28.6100    1.4490 C.2    98  MET98       0.2287
     77  O         -3.6850   29.6360    2.1450 O.2    98  MET98      -0.2864
     78  CB        -5.7350   27.3520    1.0750 C.3    98  MET98       0.0413
     79  CG        -6.7370   26.2310    1.4760 C.3    98  MET98       0.0598
     80  SD        -6.0690   24.6000    1.1890 S.3    98  MET98      -0.1393
     81  CE        -6.0600   24.5330   -0.6170 C.3    98  MET98       0.0692
     82  N         -2.8090   31.2500   -1.6560 N.3   100  SER100     -0.1217
     83  CA        -3.1400   31.7490   -3.0170 C.3   100  SER100      0.1889
     84  C         -1.8520   32.3030   -3.6260 C.2   100  SER100      0.2288
     85  O         -1.3920   33.3440   -3.1830 O.2   100  SER100     -0.2866
     86  CB        -4.1710   32.8940   -2.9200 C.3   100  SER100      0.2089
     87  OG        -4.3470   33.5490   -4.1720 O.3   100  SER100     -0.2183
@<TRIPOS>BOND
     1    87    86    1
     2    84    85    2
     3    84    83    1
     4    83    86    1
     5    83    82    1
     6     9    10    1
     7    10    11    1
     8    10    13    1
     9    11    12    2
    10    13    14    1
    11    81    80    1
    12    15    14    2
    13    14    16   am
    14    78    79    1
    15    78    75    1
    16    80    79    1
    17    76    75    1
    18    76    77    2
    19    75    74    1
    20    65    63   am
    21    64    63    2
    22    63    62    1
    23     8     7    1
    24    74    68   am
    25    17    18    1
    26    69    68    2
    27    18    19    1
    28    68    67    1
    29    62    61    1
    30     7     6    1
    31     4     3    2
    32    61    58    1
    33     3     2    1
    34     5     6    1
    35     5     2    1
    36    60    59    2
    37    56    55    1
    38    19    21   am
    39    19    20    2
    40    59    58    1
    41    59    66   am
    42    67    66    1
    43    67    70    1
    44     2     1    1
    45    58    57    1
    46    21    22    1
    47    70    71    1
    48    55    54   ar
    49    55    53   ar
    50    54    52   ar
    51    36    34    1
    52    24    23    2
    53    22    25    1
    54    22    23    1
    55    25    26    1
    56    53    51   ar
    57    23    29   am
    58    71    73    1
    59    71    72    1
    60    52    50   ar
    61    34    33    1
    62    51    50   ar
    63    28    26    1
    64    26    27    1
    65    29    30    1
    66    50    49    1
    67    30    33    1
    68    30    31    1
    69    44    42   ar
    70    33    35    1
    71    49    46    1
    72    42    43   ar
    73    42    41    1
    74    31    37   am
    75    31    32    2
    76    37    38    1
    77    46    47    1
    78    46    45    1
    79    41    38    1
    80    47    48    2
    81    38    39    1
    82    40    39    2
