@<TRIPOS>MOLECULE
tmp/2hr7A03.pdb
 84 78 0 0 0
SMALL
GASTEIGER

@<TRIPOS>ATOM
      1  N         27.2280   55.7550   64.1280 N.3    75  ASN75      -0.1240
      2  CA        26.6430   56.9220   63.4170 C.3    75  ASN75       0.1653
      3  C         25.3500   56.6280   62.6460 C.2    75  ASN75       0.2266
      4  O         24.8170   57.5230   61.9660 O.2    75  ASN75      -0.2867
      5  CB        27.6930   57.5360   62.4830 C.3    75  ASN75       0.1155
      6  CG        28.7870   58.2120   63.2670 C.2    75  ASN75       0.2627
      7  OD1       28.4810   58.9180   64.2180 O.2    75  ASN75      -0.2716
      8  ND2       30.0580   57.9130   62.9560 N.am   75  ASN75      -0.0877
      9  N         23.4600   54.8120   69.5660 N.3   104  TYR104     -0.1227
     10  CA        23.2670   56.1070   70.1820 C.3   104  TYR104      0.1736
     11  C         23.0590   57.2650   69.2140 C.2   104  TYR104      0.2595
     12  O         22.6770   58.3750   69.6630 O.2   104  TYR104     -0.2718
     13  CB        24.3850   56.4480   71.2010 C.3   104  TYR104      0.0548
     14  CG        25.7660   56.6170   70.6270 C.ar  104  TYR104     -0.0200
     15  CD1       26.2670   57.8770   70.2570 C.ar  104  TYR104     -0.0009
     16  CD2       26.5850   55.5240   70.4650 C.ar  104  TYR104     -0.0009
     17  CE1       27.5200   57.9920   69.7440 C.ar  104  TYR104      0.0417
     18  CE2       27.8190   55.6450   69.9570 C.ar  104  TYR104      0.0417
     19  CZ        28.2930   56.8670   69.6260 C.ar  104  TYR104      0.1957
     20  OH        29.5620   56.9020   69.1300 O.3   104  TYR104     -0.2866
     21  N         23.2600   57.0290   67.9160 N.am  105  ASN105     -0.1974
     22  CA        22.8690   58.0530   66.9180 C.3   105  ASN105      0.1688
     23  C         21.5610   57.7790   66.1780 C.2   105  ASN105      0.2292
     24  O         21.1940   58.5330   65.2820 O.2   105  ASN105     -0.2864
     25  CB        23.9960   58.3410   65.9270 C.3   105  ASN105      0.1181
     26  CG        24.9350   59.3960   66.4270 C.2   105  ASN105      0.2629
     27  OD1       24.5700   60.5380   66.5000 O.2   105  ASN105     -0.2716
     28  ND2       26.1420   59.0140   66.7890 N.am  105  ASN105     -0.0877
     29  N         18.0400   58.1370   65.2990 N.3   107  MET107     -0.1245
     30  CA        17.0760   59.2050   65.5950 C.3   107  MET107      0.1570
     31  C         15.6850   58.9310   65.0770 C.2   107  MET107      0.2261
     32  O         14.7030   59.4430   65.6280 O.2   107  MET107     -0.2867
     33  CB        17.5400   60.5220   64.9610 C.3   107  MET107      0.0387
     34  CG        18.9100   61.0480   65.3790 C.3   107  MET107      0.0595
     35  SD        19.1430   61.0950   67.1440 S.3   107  MET107     -0.1393
     36  CE        18.0690   62.4630   67.6050 C.3   107  MET107      0.0692
     37  N         19.7590   61.5100   72.3060 N.3   187  LYS187     -0.1245
     38  CA        19.7030   62.9030   71.8620 C.3   187  LYS187      0.1561
     39  C         18.2670   63.3390   71.7640 C.2   187  LYS187      0.2260
     40  O         17.3980   62.6070   71.2930 O.2   187  LYS187     -0.2867
     41  CB        20.3730   63.0860   70.4860 C.3   187  LYS187      0.0271
     42  CG        20.2210   64.5090   69.9250 C.3   187  LYS187      0.0035
     43  CD        21.5340   65.0420   69.4150 C.3   187  LYS187      0.0206
     44  CE        21.4210   66.5310   68.9490 C.3   187  LYS187      0.1093
     45  NZ        21.2050   67.4320   70.1110 N.3   187  LYS187     -0.1314
     46  N         21.7710   70.9320   66.1960 N.3   199  THR199     -0.1203
     47  CA        23.1610   70.8650   66.6130 C.3   199  THR199      0.1994
     48  C         23.2760   70.6620   68.1420 C.2   199  THR199      0.2617
     49  O         22.2750   70.7010   68.8790 O.2   199  THR199     -0.2717
     50  CB        23.9200   72.1660   66.2470 C.3   199  THR199      0.1784
     51  OG1       23.3460   73.2730   66.9800 O.3   199  THR199     -0.2211
     52  CG2       23.7710   72.5040   64.7970 C.3   199  THR199      0.0376
     53  N         24.5070   70.5060   68.6170 N.am  200  ALA200     -0.1979
     54  CA        24.7380   70.3040   70.0530 C.3   200  ALA200      0.1597
     55  C         24.2290   71.4840   70.8440 C.2   200  ALA200      0.2287
     56  O         23.7850   71.3340   71.9890 O.2   200  ALA200     -0.2864
     57  CB        26.2080   70.0720   70.3270 C.3   200  ALA200      0.0319
     58  N         19.6920   64.8220   62.2150 N.3   212  ASN212     -0.1225
     59  CA        20.9300   65.5020   62.5720 C.3   212  ASN212      0.1785
     60  C         21.5170   66.2640   61.4060 C.2   212  ASN212      0.2597
     61  O         21.2490   65.9560   60.2680 O.2   212  ASN212     -0.2718
     62  CB        21.9560   64.4620   63.0460 C.3   212  ASN212      0.1169
     63  CG        23.0440   65.0360   63.9790 C.2   212  ASN212      0.2627
     64  OD1       22.9910   66.1900   64.4070 O.2   212  ASN212     -0.2716
     65  ND2       24.0190   64.1960   64.2970 N.am  212  ASN212     -0.0877
     66  N         22.3320   67.2620   61.7130 N.am  213  CYS213     -0.1956
     67  CA        23.0810   68.0670   60.7260 C.3   213  CYS213      0.1843
     68  C         24.4000   68.5350   61.3370 C.2   213  CYS213      0.2626
     69  O         24.5340   68.5440   62.5500 O.2   213  CYS213     -0.2714
     70  CB        22.2620   69.2780   60.3010 C.3   213  CYS213      0.0997
     71  SG        21.6970   70.2500   61.7240 S.3   213  CYS213     -0.0797
     72  N         25.3720   68.8870   60.5020 N.am  214  SER214     -0.1950
     73  CA        26.6140   69.5370   60.9600 C.3   214  SER214      0.1924
     74  C         26.4860   71.0810   61.2260 C.2   214  SER214      0.2314
     75  O         27.2730   71.6480   62.0000 O.2   214  SER214     -0.2863
     76  CB        27.7290   69.2920   59.9490 C.3   214  SER214      0.2116
     77  OG        27.4060   69.8230   58.6650 O.3   214  SER214     -0.2180
     78  N         22.7810   65.3430   57.9630 N.3   223  VAL223     -0.1245
     79  CA        23.2810   63.9830   58.0330 C.3   223  VAL223      0.1561
     80  C         22.4150   63.0460   57.1680 C.2   223  VAL223      0.2260
     81  O         22.8880   62.1830   56.4620 O.2   223  VAL223     -0.2867
     82  CB        23.3910   63.5280   59.5120 C.3   223  VAL223      0.0252
     83  CG1       23.6670   62.0570   59.6000 C.3   223  VAL223      0.0019
     84  CG2       24.5000   64.3190   60.2070 C.3   223  VAL223      0.0019
@<TRIPOS>BOND
     1    81    80    2
     2    80    79    1
     3    78    79    1
     4    79    82    1
     5    77    76    1
     6    82    83    1
     7    82    84    1
     8    76    73    1
     9    61    60    2
    10    70    67    1
    11    70    71    1
    12    72    73    1
    13    72    68   am
    14    67    68    1
    15    67    66    1
    16    73    74    1
    17    74    75    2
    18    68    69    2
    19    60    66   am
    20    60    59    1
    21     4     3    2
    22    58    59    1
    23     5     6    1
    24     5     2    1
    25    59    62    1
    26     3     2    1
    27     8     6   am
    28    62    63    1
    29     6     7    2
    30     2     1    1
    31    63    65   am
    32    63    64    2
    33    52    50    1
    34    33    34    1
    35    33    30    1
    36    31    30    1
    37    31    32    2
    38    24    23    2
    39    29    30    1
    40    34    35    1
    41    25    26    1
    42    25    22    1
    43    23    22    1
    44    46    47    1
    45    50    47    1
    46    50    51    1
    47    26    27    2
    48    26    28   am
    49    47    48    1
    50    22    21    1
    51    35    36    1
    52    21    11   am
    53    48    53   am
    54    48    49    2
    55    53    54    1
    56    44    43    1
    57    44    45    1
    58    20    19    1
    59    11    12    2
    60    11    10    1
    61    43    42    1
    62     9    10    1
    63    19    17   ar
    64    19    18   ar
    65    17    15   ar
    66    42    41    1
    67    18    16   ar
    68    54    57    1
    69    54    55    1
    70    10    13    1
    71    15    14   ar
    72    16    14   ar
    73    41    38    1
    74    14    13    1
    75    55    56    2
    76    40    39    2
    77    39    38    1
    78    38    37    1
