@<TRIPOS>MOLECULE
tmp/2hr7B02.pdb
 132 124 0 0 0
SMALL
GASTEIGER

@<TRIPOS>ATOM
      1  N          1.0480   27.5800   67.1880 N.3    82  SER82      -0.1217
      2  CA         0.6760   28.3450   68.3970 C.3    82  SER82       0.1889
      3  C          1.8540   29.1910   68.9130 C.2    82  SER82       0.2288
      4  O          1.6570   30.2760   69.4020 O.2    82  SER82      -0.2866
      5  CB         0.2560   27.4430   69.5540 C.3    82  SER82       0.2089
      6  OG        -0.7960   26.6470   69.1260 O.3    82  SER82      -0.2183
      7  N         -2.3550   21.6930   56.3600 N.3   108  ASN108     -0.1225
      8  CA        -2.6040   22.9690   56.9590 C.3   108  ASN108      0.1785
      9  C         -1.4870   23.3560   57.8990 C.2   108  ASN108      0.2597
     10  O         -1.0400   22.5480   58.7190 O.2   108  ASN108     -0.2718
     11  CB        -3.9400   22.9560   57.7060 C.3   108  ASN108      0.1169
     12  CG        -4.3700   24.3510   58.1920 C.2   108  ASN108      0.2627
     13  OD1       -4.0340   24.7600   59.3240 O.2   108  ASN108     -0.2716
     14  ND2       -5.1350   25.0680   57.3400 N.am  108  ASN108     -0.0877
     15  N         -1.0060   24.5770   57.6900 N.am  109  ILE109     -0.1966
     16  CA        -0.2480   25.3240   58.6790 C.3   109  ILE109      0.1727
     17  C         -1.1350   26.4790   59.1790 C.2   109  ILE109      0.2617
     18  O         -1.4890   27.4150   58.4600 O.2   109  ILE109     -0.2715
     19  CB         1.0490   25.8210   58.0880 C.3   109  ILE109      0.0290
     20  CG1        1.9850   24.6150   57.8160 C.3   109  ILE109      0.0022
     21  CG2        1.7080   26.7940   59.0430 C.3   109  ILE109      0.0023
     22  CD1        3.1920   24.9670   56.9250 C.3   109  ILE109      0.0001
     23  N         -1.5400   26.3710   60.4220 N.am  110  THR110     -0.1937
     24  CA        -2.6400   27.1530   60.9120 C.3   110  THR110      0.2028
     25  C         -2.2590   28.5990   61.2510 C.2   110  THR110      0.2642
     26  O         -3.1100   29.4810   61.2690 O.2   110  THR110     -0.2714
     27  CB        -3.1730   26.4510   62.1620 C.3   110  THR110      0.1808
     28  OG1       -3.1980   25.0280   61.9370 O.3   110  THR110     -0.2208
     29  CG2       -4.5960   26.9060   62.4670 C.3   110  THR110      0.0379
     30  N         -0.9830   28.8130   61.5560 N.am  111  ARG111     -0.1977
     31  CA        -0.4540   30.1180   61.9210 C.3   111  ARG111      0.1597
     32  C          1.0210   30.1070   61.5920 C.2   111  ARG111      0.2287
     33  O          1.6650   29.0830   61.7370 O.2   111  ARG111     -0.2864
     34  CB        -0.6990   30.3450   63.4050 C.3   111  ARG111      0.0334
     35  CG        -0.2870   31.6800   63.8840 C.3   111  ARG111      0.0492
     36  CD        -0.6120   31.8790   65.3270 C.3   111  ARG111      0.2205
     37  NE         0.0090   33.0870   65.8150 N.pl3 111  ARG111     -0.0865
     38  CZ         1.0620   33.1700   66.6000 C.cat 111  ARG111      0.5346
     39  NH1        1.7190   32.1020   67.0360 N.pl3 111  ARG111      0.1354
     40  NH2        1.4790   34.3780   66.9560 N.pl3 111  ARG111      0.1354
     41  N         -0.5820   27.9450   48.7930 N.3   131  SER131     -0.1202
     42  CA        -1.8330   28.6650   49.0810 C.3   131  SER131      0.2020
     43  C         -2.9380   27.7390   49.5430 C.2   131  SER131      0.2619
     44  O         -3.9010   28.1930   50.1660 O.2   131  SER131     -0.2717
     45  CB        -2.3170   29.5040   47.8850 C.3   131  SER131      0.2103
     46  OG        -2.7020   28.6680   46.7930 O.3   131  SER131     -0.2182
     47  N         -2.7650   26.4440   49.3130 N.am  132  ARG132     -0.1965
     48  CA        -3.6880   25.4360   49.8670 C.3   132  ARG132      0.1729
     49  C         -3.4020   25.0920   51.3210 C.2   132  ARG132      0.2616
     50  O         -4.2640   24.5600   51.9970 O.2   132  ARG132     -0.2715
     51  CB        -3.6380   24.1240   49.0640 C.3   132  ARG132      0.0348
     52  CG        -3.8680   24.2380   47.5860 C.3   132  ARG132      0.0492
     53  CD        -4.8790   25.2730   47.1700 C.3   132  ARG132      0.2205
     54  NE        -6.1790   24.6510   47.0380 N.pl3 132  ARG132     -0.0865
     55  CZ        -6.9980   24.7730   45.9870 C.cat 132  ARG132      0.5346
     56  NH1       -6.6990   25.5420   44.9370 N.pl3 132  ARG132      0.1354
     57  NH2       -8.1560   24.1360   46.0200 N.pl3 132  ARG132      0.1354
     58  N         -2.1730   25.3660   51.7730 N.am  133  ILE133     -0.1963
     59  CA        -1.6980   24.9630   53.1070 C.3   133  ILE133      0.1727
     60  C         -1.6980   26.1110   54.1470 C.2   133  ILE133      0.2616
     61  O         -2.0200   25.8900   55.2960 O.2   133  ILE133     -0.2715
     62  CB        -0.2990   24.3130   52.9540 C.3   133  ILE133      0.0290
     63  CG1       -0.3940   23.1420   51.9710 C.3   133  ILE133      0.0022
     64  CG2        0.2100   23.8730   54.2900 C.3   133  ILE133      0.0023
     65  CD1        0.9590   22.4210   51.5810 C.3   133  ILE133      0.0001
     66  N         -1.3940   27.3230   53.6880 N.am  134  LEU134     -0.1963
     67  CA        -1.3550   28.5650   54.4950 C.3   134  LEU134      0.1728
     68  C         -2.1490   29.6590   53.8560 C.2   134  LEU134      0.2616
     69  O         -2.0720   29.8400   52.6450 O.2   134  LEU134     -0.2715
     70  CB         0.0370   29.2350   54.5210 C.3   134  LEU134      0.0311
     71  CG         1.3540   28.6320   54.9190 C.3   134  LEU134      0.0022
     72  CD1        1.9550   27.8950   53.7510 C.3   134  LEU134      0.0001
     73  CD2        2.2060   29.8100   55.2890 C.3   134  LEU134      0.0001
     74  N         -2.7980   30.4530   54.6950 N.am  135  ASP135     -0.1971
     75  CA        -3.5900   31.6310   54.2660 C.3   135  ASP135      0.1709
     76  C         -2.7700   32.7080   53.5850 C.2   135  ASP135      0.2293
     77  O         -3.2730   33.3430   52.6590 O.2   135  ASP135     -0.2864
     78  CB        -4.2950   32.3140   55.4530 C.3   135  ASP135      0.1436
     79  CG        -5.5310   31.6040   55.8830 C.2   135  ASP135      0.3671
     80  OD1       -5.8860   30.6660   55.1720 O.co2 135  ASP135     -0.2456
     81  OD2       -6.2050   31.9100   56.9090 O.co2 135  ASP135     -0.2456
     82  N        -13.2130   24.0750   52.2970 N.3   193  LYS193     -0.1231
     83  CA       -12.3800   25.0360   53.0170 C.3   193  LYS193      0.1693
     84  C        -11.1550   24.2880   53.5750 C.2   193  LYS193      0.2592
     85  O        -10.5140   23.5930   52.8170 O.2   193  LYS193     -0.2718
     86  CB       -13.2210   25.7390   54.0630 C.3   193  LYS193      0.0285
     87  CG       -14.5220   26.2540   53.4480 C.3   193  LYS193      0.0035
     88  CD       -15.1420   27.4530   54.1820 C.3   193  LYS193      0.0206
     89  CE       -14.6670   28.7910   53.5610 C.3   193  LYS193      0.1093
     90  NZ       -15.1830   29.0870   52.1310 N.3   193  LYS193     -0.1314
     91  N        -10.8200   24.4260   54.8530 N.am  194  SER194     -0.1952
     92  CA        -9.6510   23.7490   55.4410 C.3   194  SER194      0.1924
     93  C         -9.9600   22.3620   56.0550 C.2   194  SER194      0.2314
     94  O         -9.0530   21.6750   56.5610 O.2   194  SER194     -0.2863
     95  CB        -8.9820   24.6530   56.5050 C.3   194  SER194      0.2116
     96  OG        -9.8170   24.9080   57.6120 O.3   194  SER194     -0.2180
     97  N         -9.8280   19.2100   60.5350 N.3   209  LEU209     -0.1245
     98  CA        -8.8210   20.0340   59.9120 C.3   209  LEU209      0.1561
     99  C         -7.9600   19.1620   59.0630 C.2   209  LEU209      0.2260
    100  O         -7.4020   18.2240   59.5650 O.2   209  LEU209     -0.2867
    101  CB        -7.9620   20.7300   60.9880 C.3   209  LEU209      0.0270
    102  CG        -6.9550   21.7800   60.5140 C.3   209  LEU209      0.0019
    103  CD1       -7.6370   22.7640   59.5890 C.3   209  LEU209      0.0001
    104  CD2       -6.2830   22.5130   61.7000 C.3   209  LEU209      0.0001
    105  N        -10.0570   21.1600   63.9730 N.3   225  ARG225     -0.1245
    106  CA        -9.9020   22.5700   63.7100 C.3   225  ARG225      0.1563
    107  C         -9.8640   23.3500   65.0100 C.2   225  ARG225      0.2260
    108  O         -9.1070   24.3020   65.1470 O.2   225  ARG225     -0.2867
    109  CB       -11.0450   23.0520   62.8640 C.3   225  ARG225      0.0307
    110  CG       -11.0890   24.5450   62.6160 C.3   225  ARG225      0.0489
    111  CD       -12.5260   25.0210   62.5820 C.3   225  ARG225      0.2205
    112  NE       -12.8840   25.8650   61.4440 N.pl3 225  ARG225     -0.0865
    113  CZ       -14.1560   26.0480   61.0500 C.cat 225  ARG225      0.5346
    114  NH1      -15.1630   25.4180   61.7080 N.pl3 225  ARG225      0.1354
    115  NH2      -14.4180   26.8250   59.9660 N.pl3 225  ARG225      0.1354
    116  N         -4.3440   25.2530   73.6790 N.3   246  ASP246     -0.1239
    117  CA        -5.1230   25.6410   72.5180 C.3   246  ASP246      0.1674
    118  C         -5.4950   24.5380   71.5350 C.2   246  ASP246      0.2266
    119  O         -5.6990   24.8210   70.3710 O.2   246  ASP246     -0.2867
    120  CB        -4.4470   26.8140   71.7970 C.3   246  ASP246      0.1410
    121  CG        -5.3890   27.5490   70.8380 C.2   246  ASP246      0.3668
    122  OD1       -6.6100   27.7500   71.1590 O.co2 246  ASP246     -0.2456
    123  OD2       -5.0000   27.9650   69.7130 O.co2 246  ASP246     -0.2456
    124  N         -9.7720   27.9630   80.5990 N.3   278  LYS278     -0.1245
    125  CA        -8.4980   27.4590   80.1510 C.3   278  LYS278      0.1561
    126  C         -7.6610   27.0100   81.3420 C.2   278  LYS278      0.2260
    127  O         -7.6670   27.5980   82.4110 O.2   278  LYS278     -0.2867
    128  CB        -7.7600   28.5230   79.3250 C.3   278  LYS278      0.0271
    129  CG        -8.6500   29.2460   78.2660 C.3   278  LYS278      0.0035
    130  CD        -7.8140   29.8820   77.1400 C.3   278  LYS278      0.0206
    131  CE        -7.4510   31.3490   77.4150 C.3   278  LYS278      0.1093
    132  NZ        -8.1240   32.3350   76.4560 N.3   278  LYS278     -0.1314
@<TRIPOS>BOND
     1    56    55    1
     2    55    57    1
     3    55    54    2
     4    46    45    1
     5    54    53    1
     6    53    52    1
     7    52    51    1
     8    45    42    1
     9    41    42    1
    10    51    48    1
    11    42    43    1
    12    47    43   am
    13    47    48    1
    14    43    44    2
    15    48    49    1
    16    49    58   am
    17    49    50    2
    18    65    63    1
    19    58    59    1
    20    63    62    1
    21    90    89    1
    22    82    83    1
    23    69    68    2
    24    77    76    2
    25    85    84    2
    26    62    59    1
    27    62    64    1
    28    83    84    1
    29    83    86    1
    30    59    60    1
    31    87    86    1
    32    87    88    1
    33    89    88    1
    34    84    91   am
    35    76    75    1
    36    66    60   am
    37    66    67    1
    38    72    71    1
    39    68    67    1
    40    68    74   am
    41    60    61    2
    42    75    74    1
    43    75    78    1
    44    67    70    1
    45    70    71    1
    46    91    92    1
    47    71    73    1
    48    80    79   ar
    49    92    93    1
    50    92    95    1
    51    78    79    1
    52    79    81   ar
    53    93    94    2
    54     7     8    1
    55    95    96    1
    56    22    20    1
    57     8    11    1
    58     8     9    1
    59    14    12   am
    60    15     9   am
    61    15    16    1
    62    11    12    1
    63    20    19    1
    64     9    10    2
    65    19    16    1
    66    19    21    1
    67    12    13    2
    68    18    17    2
    69    16    17    1
    70    99   100    2
    71    99    98    1
    72    17    23   am
    73   103   102    1
    74    98    97    1
    75    98   101    1
    76   115   113    1
    77    23    24    1
    78   102   101    1
    79   102   104    1
    80    24    25    1
    81    24    27    1
    82   113   112    2
    83   113   114    1
    84    25    26    2
    85    25    30   am
    86   112   111    1
    87    30    31    1
    88    32    33    2
    89    32    31    1
    90    31    34    1
    91    28    27    1
    92    27    29    1
    93   111   110    1
    94   110   109    1
    95   109   106    1
    96    34    35    1
    97   106   105    1
    98   106   107    1
    99    35    36    1
   100   107   108    2
   101    36    37    1
   102    37    38    2
   103    38    40    1
   104    38    39    1
   105     1     2    1
   106     2     3    1
   107     2     5    1
   108     3     4    2
   109     6     5    1
   110   123   121   ar
   111   119   118    2
   112   121   122   ar
   113   121   120    1
   114   118   117    1
   115   120   117    1
   116   117   116    1
   117   132   131    1
   118   130   131    1
   119   130   129    1
   120   129   128    1
   121   128   125    1
   122   125   124    1
   123   125   126    1
   124   126   127    2
