@<TRIPOS>MOLECULE
tmp/2hr7B07.pdb
 140 135 0 0 0
SMALL
GASTEIGER

@<TRIPOS>ATOM
      1  N         19.7040   17.1400   68.5700 N.3    11  ARG11      -0.1245
      2  CA        20.9370   17.4990   67.8570 C.3    11  ARG11       0.1563
      3  C         22.0370   16.4450   67.9340 C.2    11  ARG11       0.2260
      4  O         21.9050   15.4610   68.6590 O.2    11  ARG11      -0.2867
      5  CB        21.4570   18.8100   68.3860 C.3    11  ARG11       0.0307
      6  CG        21.7390   18.7870   69.8120 C.3    11  ARG11       0.0489
      7  CD        22.2350   20.0970   70.2970 C.3    11  ARG11       0.2205
      8  NE        21.1520   21.0820   70.3670 N.pl3  11  ARG11      -0.0865
      9  CZ        21.3110   22.3940   70.2170 C.cat  11  ARG11       0.5346
     10  NH1       22.5020   22.9170   69.9400 N.pl3  11  ARG11       0.1354
     11  NH2       20.2590   23.1930   70.3110 N.pl3  11  ARG11       0.1354
     12  N         12.6960   20.6190   66.8430 N.3    31  GLN31      -0.1245
     13  CA        13.9240   21.0320   66.1700 C.3    31  GLN31       0.1566
     14  C         14.8060   19.7870   66.0070 C.2    31  GLN31       0.2260
     15  O         15.0260   19.0520   66.9630 O.2    31  GLN31      -0.2867
     16  CB        14.6920   22.0430   67.0070 C.3    31  GLN31       0.0367
     17  CG        14.0380   23.3600   67.1010 C.3    31  GLN31       0.0905
     18  CD        14.9010   24.4070   67.7760 C.2    31  GLN31       0.2608
     19  OE1       14.4380   25.5390   68.0540 O.2    31  GLN31      -0.2717
     20  NE2       16.1380   24.0490   68.0490 N.am   31  GLN31      -0.0878
     21  N         18.6020   19.3320   64.3770 N.3    33  LEU33      -0.1231
     22  CA        19.7000   20.1290   63.8650 C.3    33  LEU33       0.1693
     23  C         21.1180   19.5630   64.1320 C.2    33  LEU33       0.2591
     24  O         21.3160   18.7900   65.0540 O.2    33  LEU33      -0.2718
     25  CB        19.5900   21.5300   64.4540 C.3    33  LEU33       0.0284
     26  CG        19.7010   21.7080   65.9690 C.3    33  LEU33       0.0019
     27  CD1       19.6900   23.1610   66.3040 C.3    33  LEU33       0.0001
     28  CD2       18.5770   21.0440   66.7460 C.3    33  LEU33       0.0001
     29  N         22.0780   19.9860   63.3090 N.am   34  LEU34      -0.1980
     30  CA        23.5250   19.8100   63.5710 C.3    34  LEU34       0.1596
     31  C         23.9110   18.3400   63.7460 C.2    34  LEU34       0.2287
     32  O         24.3730   17.9120   64.7850 O.2    34  LEU34      -0.2864
     33  CB        23.9790   20.6450   64.7600 C.3    34  LEU34       0.0297
     34  CG        23.5720   22.1130   64.7060 C.3    34  LEU34       0.0022
     35  CD1       23.8030   22.7560   66.0850 C.3    34  LEU34       0.0001
     36  CD2       24.2840   22.8930   63.5940 C.3    34  LEU34       0.0001
     37  N         26.1840   16.1990   61.5980 N.3    36  PHE36      -0.1241
     38  CA        27.1570   16.2320   60.5210 C.3    36  PHE36       0.1605
     39  C         27.7120   14.8760   60.0830 C.2    36  PHE36       0.2264
     40  O         28.2410   14.7750   58.9770 O.2    36  PHE36      -0.2867
     41  CB        28.2910   17.1360   60.9300 C.3    36  PHE36       0.0534
     42  CG        27.8580   18.5350   61.1940 C.ar   36  PHE36      -0.0203
     43  CD1       27.6480   18.9720   62.4840 C.ar   36  PHE36      -0.0042
     44  CD2       27.6500   19.4130   60.1410 C.ar   36  PHE36      -0.0042
     45  CE1       27.2600   20.2630   62.7240 C.ar   36  PHE36      -0.0003
     46  CE2       27.2620   20.7230   60.3800 C.ar   36  PHE36      -0.0003
     47  CZ        27.0640   21.1420   61.6730 C.ar   36  PHE36      -0.0000
     48  N         11.4000   22.6510   62.7760 N.3    59  LEU59      -0.1245
     49  CA        12.6180   23.2590   62.2690 C.3    59  LEU59       0.1561
     50  C         13.6640   22.1660   62.0060 C.2    59  LEU59       0.2260
     51  O         13.9200   21.3000   62.8480 O.2    59  LEU59      -0.2867
     52  CB        13.1100   24.3350   63.2530 C.3    59  LEU59       0.0270
     53  CG        14.4570   25.0200   62.9380 C.3    59  LEU59       0.0019
     54  CD1       14.5080   26.3700   63.5580 C.3    59  LEU59       0.0001
     55  CD2       15.6890   24.2230   63.4220 C.3    59  LEU59       0.0001
     56  N         17.6530   21.9920   60.5650 N.3    61  PHE61      -0.1227
     57  CA        18.8150   22.8350   60.2660 C.3    61  PHE61       0.1736
     58  C         20.1060   21.9920   60.1840 C.2    61  PHE61       0.2595
     59  O         20.4960   21.4110   61.1960 O.2    61  PHE61      -0.2718
     60  CB        18.9240   23.8650   61.4000 C.3    61  PHE61       0.0547
     61  CG        20.1400   24.7600   61.3360 C.ar   61  PHE61      -0.0202
     62  CD1       21.0370   24.8070   62.4070 C.ar   61  PHE61      -0.0042
     63  CD2       20.3740   25.5760   60.2480 C.ar   61  PHE61      -0.0042
     64  CE1       22.1750   25.6750   62.3740 C.ar   61  PHE61      -0.0003
     65  CE2       21.4830   26.4470   60.2260 C.ar   61  PHE61      -0.0003
     66  CZ        22.3820   26.4870   61.3020 C.ar   61  PHE61      -0.0000
     67  N         20.7570   21.9290   59.0200 N.am   62  ARG62      -0.1980
     68  CA        22.0890   21.2500   58.9050 C.3    62  ARG62       0.1597
     69  C         22.0530   19.7970   59.4270 C.2    62  ARG62       0.2287
     70  O         22.8060   19.4270   60.3250 O.2    62  ARG62      -0.2864
     71  CB        23.1940   22.0490   59.6330 C.3    62  ARG62       0.0334
     72  CG        23.5430   23.4270   58.9550 C.3    62  ARG62       0.0492
     73  CD        24.7490   24.1860   59.5630 C.3    62  ARG62       0.2205
     74  NE        24.8940   25.5090   58.9230 N.pl3  62  ARG62      -0.0865
     75  CZ        25.4500   26.6140   59.4800 C.cat  62  ARG62       0.5346
     76  NH1       25.9990   26.6050   60.6800 N.pl3  62  ARG62       0.1354
     77  NH2       25.4690   27.7570   58.8170 N.pl3  62  ARG62       0.1354
     78  N          8.8880   30.0520   65.3390 N.3    85  PHE85      -0.1227
     79  CA        10.2940   30.3730   65.3170 C.3    85  PHE85       0.1736
     80  C         10.4100   31.7250   64.6190 C.2    85  PHE85       0.2595
     81  O         10.3420   31.8110   63.4070 O.2    85  PHE85      -0.2718
     82  CB        11.1230   29.3220   64.5960 C.3    85  PHE85       0.0547
     83  CG        12.6120   29.5840   64.7130 C.ar   85  PHE85      -0.0202
     84  CD1       13.2960   29.2290   65.8560 C.ar   85  PHE85      -0.0042
     85  CD2       13.3100   30.2480   63.7040 C.ar   85  PHE85      -0.0042
     86  CE1       14.6740   29.5140   66.0010 C.ar   85  PHE85      -0.0003
     87  CE2       14.6770   30.5270   63.8530 C.ar   85  PHE85      -0.0003
     88  CZ        15.3500   30.1530   64.9940 C.ar   85  PHE85      -0.0000
     89  N         10.6110   32.7690   65.4190 N.am   86  PHE86      -0.1976
     90  CA        10.2450   34.1210   65.0600 C.3    86  PHE86       0.1639
     91  C          8.7430   34.1210   64.6060 C.2    86  PHE86       0.2290
     92  O          7.8180   34.1190   65.4900 O.2    86  PHE86      -0.2864
     93  CB        11.2490   34.6880   64.0480 C.3    86  PHE86       0.0560
     94  CG        11.2610   36.2060   63.9820 C.ar   86  PHE86      -0.0200
     95  CD1       11.9030   36.9480   64.9580 C.ar   86  PHE86      -0.0042
     96  CD2       10.6190   36.8820   62.9420 C.ar   86  PHE86      -0.0042
     97  CE1       11.8970   38.3210   64.9080 C.ar   86  PHE86      -0.0003
     98  CE2       10.6240   38.2710   62.8870 C.ar   86  PHE86      -0.0003
     99  CZ        11.2510   38.9950   63.8720 C.ar   86  PHE86      -0.0000
    100  N          7.9240   31.8610   61.8060 N.3    88  TYR88      -0.1241
    101  CA         7.8840   30.6750   60.9690 C.3    88  TYR88       0.1605
    102  C          7.3860   29.4350   61.6890 C.2    88  TYR88       0.2264
    103  O          7.7770   29.1740   62.8250 O.2    88  TYR88      -0.2867
    104  CB         9.2650   30.3890   60.3780 C.3    88  TYR88       0.0534
    105  CG         9.8030   31.5300   59.5270 C.ar   88  TYR88      -0.0201
    106  CD1       10.8710   32.2870   59.9730 C.ar   88  TYR88      -0.0009
    107  CD2        9.2530   31.8340   58.2810 C.ar   88  TYR88      -0.0009
    108  CE1       11.3720   33.3310   59.2200 C.ar   88  TYR88       0.0417
    109  CE2        9.7400   32.8760   57.5260 C.ar   88  TYR88       0.0417
    110  CZ        10.8160   33.6120   58.0000 C.ar   88  TYR88       0.1957
    111  OH        11.3750   34.6530   57.2910 O.3    88  TYR88      -0.2866
    112  N         10.6540   25.5020   59.1190 N.3    91  VAL91      -0.1245
    113  CA        11.9940   25.9660   58.7160 C.3    91  VAL91       0.1561
    114  C         12.8310   24.7940   58.2320 C.2    91  VAL91       0.2260
    115  O         12.9750   23.8100   58.9620 O.2    91  VAL91      -0.2867
    116  CB        12.6900   26.6700   59.8810 C.3    91  VAL91       0.0252
    117  CG1       14.1310   27.1590   59.4890 C.3    91  VAL91       0.0019
    118  CG2       11.8320   27.8380   60.3240 C.3    91  VAL91       0.0019
    119  N         16.5070   24.3980   56.4540 N.3    93  PHE93      -0.1241
    120  CA        17.6070   25.3320   56.2060 C.3    93  PHE93       0.1605
    121  C         18.9640   24.6030   56.1870 C.2    93  PHE93       0.2264
    122  O         19.3190   23.9390   57.1460 O.2    93  PHE93      -0.2867
    123  CB        17.6010   26.4120   57.2790 C.3    93  PHE93       0.0534
    124  CG        18.5030   27.5910   56.9680 C.ar   93  PHE93      -0.0203
    125  CD1       17.9780   28.7930   56.5340 C.ar   93  PHE93      -0.0042
    126  CD2       19.8630   27.5090   57.1850 C.ar   93  PHE93      -0.0042
    127  CE1       18.8260   29.8890   56.3010 C.ar   93  PHE93      -0.0003
    128  CE2       20.6900   28.5580   56.9380 C.ar   93  PHE93      -0.0003
    129  CZ        20.1960   29.7360   56.4930 C.ar   93  PHE93      -0.0000
    130  N          9.8700   28.9210   55.8210 N.3   115  ARG115     -0.1245
    131  CA        11.1790   29.3990   55.4020 C.3   115  ARG115      0.1563
    132  C         11.9610   28.2060   54.9110 C.2   115  ARG115      0.2260
    133  O         12.2980   27.3730   55.7010 O.2   115  ARG115     -0.2867
    134  CB        11.9310   30.0120   56.5730 C.3   115  ARG115      0.0307
    135  CG        13.3110   30.5150   56.2370 C.3   115  ARG115      0.0489
    136  CD        13.3760   31.9910   56.2810 C.3   115  ARG115      0.2205
    137  NE        14.6970   32.5080   56.0380 N.pl3 115  ARG115     -0.0865
    138  CZ        15.0000   33.7960   56.0670 C.cat 115  ARG115      0.5346
    139  NH1       14.0880   34.7170   56.3490 N.pl3 115  ARG115      0.1354
    140  NH2       16.2240   34.1700   55.7850 N.pl3 115  ARG115      0.1354
@<TRIPOS>BOND
     1   132   131    1
     2   132   133    2
     3   131   130    1
     4   131   134    1
     5   140   138    1
     6   137   138    2
     7   137   136    1
     8   138   139    1
     9   121   120    1
    10   121   122    2
    11   120   119    1
    12   120   123    1
    13   135   136    1
    14   135   134    1
    15   127   129   ar
    16   127   125   ar
    17   129   128   ar
    18   125   124   ar
    19   128   126   ar
    20   124   126   ar
    21   124   123    1
    22   111   110    1
    23   109   110   ar
    24   109   107   ar
    25   110   108   ar
    26   114   113    1
    27   114   115    2
    28   107   105   ar
    29   113   112    1
    30   113   116    1
    31    77    75    1
    32    68    67    1
    33    68    69    1
    34    68    71    1
    35    74    75    2
    36    74    73    1
    37    72    73    1
    38    72    71    1
    39    40    39    2
    40    67    58   am
    41   108   106   ar
    42    69    70    2
    43    75    76    1
    44   117   116    1
    45   105   106   ar
    46   105   104    1
    47   116   118    1
    48    39    38    1
    49    44    46   ar
    50    44    42   ar
    51    58    57    1
    52    58    59    2
    53    65    63   ar
    54    65    66   ar
    55    63    61   ar
    56    57    56    1
    57    57    60    1
    58   104   101    1
    59    46    47   ar
    60    38    41    1
    61    38    37    1
    62    41    42    1
    63   101   102    1
    64   101   100    1
    65    42    43   ar
    66    66    64   ar
    67    61    60    1
    68    61    62   ar
    69    47    45   ar
    70   102   103    2
    71    50    49    1
    72    50    51    2
    73    49    48    1
    74    49    52    1
    75    64    62   ar
    76    43    45   ar
    77    98    96   ar
    78    98    99   ar
    79    53    52    1
    80    53    55    1
    81    53    54    1
    82    96    94   ar
    83    29    30    1
    84    29    23   am
    85    81    80    2
    86    30    31    1
    87    30    33    1
    88    36    34    1
    89    85    87   ar
    90    85    83   ar
    91    31    32    2
    92    87    88   ar
    93    22    23    1
    94    22    21    1
    95    22    25    1
    96    99    97   ar
    97    94    93    1
    98    94    95   ar
    99    93    90    1
   100    23    24    2
   101    25    26    1
   102    82    83    1
   103    82    79    1
   104    91    90    1
   105    91    92    2
   106    80    79    1
   107    80    89   am
   108    34    33    1
   109    34    35    1
   110    83    84   ar
   111    97    95   ar
   112    88    86   ar
   113    90    89    1
   114    79    78    1
   115    84    86   ar
   116    26    27    1
   117    26    28    1
   118    14    13    1
   119    14    15    2
   120    13    12    1
   121    13    16    1
   122    16    17    1
   123    17    18    1
   124    18    20   am
   125    18    19    2
   126     2     3    1
   127     2     5    1
   128     2     1    1
   129     3     4    2
   130     5     6    1
   131     6     7    1
   132    10     9    1
   133     9    11    1
   134     9     8    2
   135     7     8    1
