@<TRIPOS>MOLECULE
tmp/2hr7B03.pdb
 81 76 0 0 0
SMALL
GASTEIGER

@<TRIPOS>ATOM
      1  N          2.7450   10.9130   57.7620 N.3    75  ASN75      -0.1240
      2  CA         1.3710   11.3190   58.1500 C.3    75  ASN75       0.1653
      3  C          1.1870   12.6680   58.9030 C.2    75  ASN75       0.2266
      4  O          0.0710   12.9890   59.3800 O.2    75  ASN75      -0.2867
      5  CB         0.7310   10.2100   59.0120 C.3    75  ASN75       0.1155
      6  CG         0.6490    8.8700   58.2750 C.2    75  ASN75       0.2627
      7  OD1        0.1340    8.7780   57.1480 O.2    75  ASN75      -0.2716
      8  ND2        1.1940    7.8380   58.9040 N.am   75  ASN75      -0.0877
      9  N          3.7750   14.5690   52.3870 N.3   104  TYR104     -0.1227
     10  CA         2.6590   14.4000   51.4530 C.3   104  TYR104      0.1736
     11  C          1.3110   14.3810   52.1230 C.2   104  TYR104      0.2595
     12  O          0.3000   14.4040   51.4520 O.2   104  TYR104     -0.2718
     13  CB         2.8530   13.1600   50.5470 C.3   104  TYR104      0.0548
     14  CG         2.9180   11.8170   51.2500 C.ar  104  TYR104     -0.0200
     15  CD1        1.7790   11.0820   51.4800 C.ar  104  TYR104     -0.0009
     16  CD2        4.1430   11.2840   51.6530 C.ar  104  TYR104     -0.0009
     17  CE1        1.8350    9.8620   52.1440 C.ar  104  TYR104      0.0417
     18  CE2        4.2270   10.0580   52.3090 C.ar  104  TYR104      0.0417
     19  CZ         3.0730    9.3480   52.5460 C.ar  104  TYR104      0.1957
     20  OH         3.1390    8.1490   53.2230 O.3   104  TYR104     -0.2866
     21  N          1.3050   14.3580   53.4440 N.am  105  ASN105     -0.1974
     22  CA         0.1140   14.5570   54.2070 C.3   105  ASN105      0.1688
     23  C         -0.0800   15.9370   54.8550 C.2   105  ASN105      0.2292
     24  O         -1.0730   16.1370   55.5180 O.2   105  ASN105     -0.2864
     25  CB         0.0050   13.4590   55.2510 C.3   105  ASN105      0.1181
     26  CG        -0.8450   12.3070   54.7450 C.2   105  ASN105      0.2629
     27  OD1       -2.0340   12.4860   54.5350 O.2   105  ASN105     -0.2716
     28  ND2       -0.2200   11.1530   54.4810 N.am  105  ASN105     -0.0877
     29  N         -1.4080   19.3340   55.2370 N.3   107  MET107     -0.1245
     30  CA        -2.6170   19.9850   54.6870 C.3   107  MET107      0.1570
     31  C         -2.7910   21.4150   55.1480 C.2   107  MET107      0.2261
     32  O         -3.3660   22.2270   54.4530 O.2   107  MET107     -0.2867
     33  CB        -3.8490   19.2370   55.1650 C.3   107  MET107      0.0387
     34  CG        -3.8720   17.7670   54.8030 C.3   107  MET107      0.0595
     35  SD        -3.7310   17.4830   53.0160 S.3   107  MET107     -0.1393
     36  CE        -3.8580   15.6620   53.1970 C.3   107  MET107      0.0692
     37  N         -2.7700   16.5800   47.8080 N.3   186  LYS186     -0.1245
     38  CA        -4.2010   16.5860   47.9630 C.3   186  LYS186      0.1561
     39  C         -4.8110   17.9940   47.8300 C.2   186  LYS186      0.2260
     40  O         -4.3600   18.9460   48.4680 O.2   186  LYS186     -0.2867
     41  CB        -4.5860   16.0060   49.3020 C.3   186  LYS186      0.0271
     42  CG        -6.1050   15.9590   49.5030 C.3   186  LYS186      0.0035
     43  CD        -6.5160   14.5620   49.8700 C.3   186  LYS186      0.0206
     44  CE        -8.0310   14.3720   49.9790 C.3   186  LYS186      0.1093
     45  NZ        -8.3020   13.5680   51.2200 N.3   186  LYS186     -0.1314
     46  N         -7.9830   16.6190   56.9780 N.3   211  ASN211     -0.1225
     47  CA        -8.2580   15.2980   56.4710 C.3   211  ASN211      0.1785
     48  C         -9.0930   14.5070   57.4510 C.2   211  ASN211      0.2597
     49  O         -9.1170   14.8090   58.6390 O.2   211  ASN211     -0.2718
     50  CB        -6.9240   14.5650   56.1900 C.3   211  ASN211      0.1169
     51  CG        -7.0820   13.3230   55.3040 C.2   211  ASN211      0.2627
     52  OD1       -8.0180   13.2200   54.4960 O.2   211  ASN211     -0.2716
     53  ND2       -6.1170   12.3870   55.4490 N.am  211  ASN211     -0.0877
     54  N         -9.7570   13.4840   56.9170 N.am  212  CYS212     -0.1956
     55  CA       -10.6000   12.5730   57.6860 C.3   212  CYS212      0.1843
     56  C        -10.6770   11.2390   56.9860 C.2   212  CYS212      0.2626
     57  O        -10.2530   11.1090   55.8430 O.2   212  CYS212     -0.2714
     58  CB       -12.0330   13.1140   57.8760 C.3   212  CYS212      0.0997
     59  SG       -12.8730   13.4140   56.3130 S.3   212  CYS212     -0.0797
     60  N        -11.1830   10.2500   57.7040 N.am  213  SER213     -0.1936
     61  CA       -11.3220    8.9120   57.1510 C.3   213  SER213      0.2055
     62  C        -12.6980    8.7540   56.5290 C.2   213  SER213      0.2642
     63  O        -12.8350    8.0380   55.5440 O.2   213  SER213     -0.2714
     64  CB       -11.0760    7.8300   58.1900 C.3   213  SER213      0.2130
     65  OG       -12.1150    7.7590   59.1380 O.3   213  SER213     -0.2179
     66  N        -13.6760    9.4830   57.0710 N.am  214  GLN214     -0.1976
     67  CA       -15.0230    9.5210   56.5460 C.3   214  GLN214      0.1601
     68  C        -15.6780   10.8970   56.5650 C.2   214  GLN214      0.2287
     69  O        -15.3570   11.7150   57.4280 O.2   214  GLN214     -0.2864
     70  CB       -15.8360    8.5640   57.3660 C.3   214  GLN214      0.0394
     71  CG       -15.2810    7.1860   57.1990 C.3   214  GLN214      0.0908
     72  CD       -16.3210    6.2190   57.4320 C.2   214  GLN214      0.2608
     73  OE1      -16.6150    5.9020   58.5890 O.2   214  GLN214     -0.2717
     74  NE2      -16.9730    5.7860   56.3570 N.am  214  GLN214     -0.0878
     75  N         -8.6750   13.2240   61.0400 N.3   222  VAL222     -0.1245
     76  CA        -7.2700   13.0190   61.3240 C.3   222  VAL222      0.1561
     77  C         -6.7770   14.0120   62.3810 C.2   222  VAL222      0.2260
     78  O         -6.0050   13.6300   63.2720 O.2   222  VAL222     -0.2867
     79  CB        -6.4780   13.1130   60.0560 C.3   222  VAL222      0.0252
     80  CG1       -5.0620   12.9250   60.3390 C.3   222  VAL222      0.0019
     81  CG2       -6.9900   12.0370   59.0820 C.3   222  VAL222      0.0019
@<TRIPOS>BOND
     1    37    38    1
     2    39    38    1
     3    39    40    2
     4    38    41    1
     5    41    42    1
     6    42    43    1
     7    43    44    1
     8    44    45    1
     9    13    14    1
    10    13    10    1
    11    14    15   ar
    12    14    16   ar
    13    12    11    2
    14    10    11    1
    15    10     9    1
    16    15    17   ar
    17    16    18   ar
    18    11    21   am
    19    17    19   ar
    20    18    19   ar
    21    19    20    1
    22    35    36    1
    23    35    34    1
    24    21    22    1
    25    22    23    1
    26    22    25    1
    27    32    31    2
    28    28    26   am
    29    52    51    2
    30    27    26    2
    31    30    31    1
    32    30    33    1
    33    30    29    1
    34    26    25    1
    35    34    33    1
    36    23    24    2
    37    51    53   am
    38    51    50    1
    39    63    62    2
    40    57    56    2
    41    50    47    1
    42    59    58    1
    43    74    72   am
    44    47    46    1
    45    47    48    1
    46    62    66   am
    47    62    61    1
    48    67    68    1
    49    67    66    1
    50    67    70    1
    51    68    69    2
    52    54    48   am
    53    54    55    1
    54    56    55    1
    55    56    60   am
    56     7     6    2
    57    61    60    1
    58    61    64    1
    59    71    70    1
    60    71    72    1
    61    72    73    2
    62    48    49    2
    63    55    58    1
    64     1     2    1
    65     2     3    1
    66     2     5    1
    67    64    65    1
    68     6     8   am
    69     6     5    1
    70     3     4    2
    71    81    79    1
    72    79    80    1
    73    79    76    1
    74    75    76    1
    75    76    77    1
    76    77    78    2
