@<TRIPOS>MOLECULE
tmp/2hrcB02.pdb
 178 168 0 0 0
SMALL
GASTEIGER

@<TRIPOS>ATOM
      1  N         43.4440   30.7000   26.6350 N.3    12  MET12      -0.1245
      2  CA        43.9220   30.8070   25.2600 C.3    12  MET12       0.1570
      3  C         44.8600   31.9990   25.1590 C.2    12  MET12       0.2261
      4  O         45.8740   31.9570   24.4590 O.2    12  MET12      -0.2867
      5  CB        42.7600   30.9980   24.2870 C.3    12  MET12       0.0387
      6  CG        43.2250   31.1990   22.8550 C.3    12  MET12       0.0595
      7  SD        41.8800   31.3450   21.6830 S.3    12  MET12      -0.1393
      8  CE        41.3550   33.0360   21.9690 C.3    12  MET12       0.0692
      9  N         49.8360   35.3140   17.0620 N.3    24  PHE24      -0.1227
     10  CA        48.7280   34.7850   17.8550 C.3    24  PHE24       0.1736
     11  C         47.8610   33.9420   16.9230 C.2    24  PHE24       0.2595
     12  O         47.5450   32.7850   17.2150 O.2    24  PHE24      -0.2718
     13  CB        47.9260   35.9530   18.4420 C.3    24  PHE24       0.0547
     14  CG        46.5270   35.5990   18.8730 C.ar   24  PHE24      -0.0202
     15  CD1       46.2980   34.6220   19.8380 C.ar   24  PHE24      -0.0042
     16  CD2       45.4390   36.2850   18.3420 C.ar   24  PHE24      -0.0042
     17  CE1       45.0020   34.3370   20.2720 C.ar   24  PHE24      -0.0003
     18  CE2       44.1380   36.0090   18.7680 C.ar   24  PHE24      -0.0003
     19  CZ        43.9220   35.0330   19.7350 C.ar   24  PHE24      -0.0000
     20  N         47.5010   34.5260   15.7850 N.am   25  LEU25      -0.1980
     21  CA        46.6770   33.8440   14.7980 C.3    25  LEU25       0.1596
     22  C         47.4180   32.6700   14.1610 C.2    25  LEU25       0.2287
     23  O         46.8300   31.6180   13.9120 O.2    25  LEU25      -0.2864
     24  CB        46.2420   34.8330   13.7160 C.3    25  LEU25       0.0297
     25  CG        45.3640   35.9940   14.1960 C.3    25  LEU25       0.0022
     26  CD1       45.1690   36.9980   13.0690 C.3    25  LEU25       0.0001
     27  CD2       44.0190   35.4480   14.6770 C.3    25  LEU25       0.0001
     28  N         47.3950   29.6700   16.4280 N.3    28  LEU28      -0.1231
     29  CA        46.0470   29.1290   16.4970 C.3    28  LEU28       0.1693
     30  C         45.6880   28.3000   15.2640 C.2    28  LEU28       0.2592
     31  O         45.1300   27.2090   15.3800 O.2    28  LEU28      -0.2718
     32  CB        45.0500   30.2750   16.6820 C.3    28  LEU28       0.0284
     33  CG        43.5730   29.9090   16.8090 C.3    28  LEU28       0.0019
     34  CD1       42.8640   30.9780   17.6180 C.3    28  LEU28       0.0001
     35  CD2       42.9520   29.7590   15.4320 C.3    28  LEU28       0.0001
     36  N         46.0110   28.8080   14.0820 N.am   29  PHE29      -0.1976
     37  CA        45.6970   28.0800   12.8600 C.3    29  PHE29       0.1639
     38  C         46.6090   26.8790   12.6290 C.2    29  PHE29       0.2290
     39  O         46.3560   26.0650   11.7440 O.2    29  PHE29      -0.2864
     40  CB        45.7320   29.0290   11.6580 C.3    29  PHE29       0.0560
     41  CG        44.6070   30.0250   11.6510 C.ar   29  PHE29      -0.0200
     42  CD1       44.8650   31.3910   11.6200 C.ar   29  PHE29      -0.0042
     43  CD2       43.2850   29.5960   11.7020 C.ar   29  PHE29      -0.0042
     44  CE1       43.8190   32.3150   11.6430 C.ar   29  PHE29      -0.0003
     45  CE2       42.2350   30.5110   11.7250 C.ar   29  PHE29      -0.0003
     46  CZ        42.5040   31.8740   11.6960 C.ar   29  PHE29      -0.0000
     47  N         42.9810   21.7490   17.3530 N.3    34  LEU34      -0.1231
     48  CA        41.8830   22.7140   17.3730 C.3    34  LEU34       0.1693
     49  C         41.0830   22.7080   16.0730 C.2    34  LEU34       0.2591
     50  O         39.8590   22.8500   16.0900 O.2    34  LEU34      -0.2718
     51  CB        42.4180   24.1240   17.6300 C.3    34  LEU34       0.0284
     52  CG        41.3670   25.2390   17.6030 C.3    34  LEU34       0.0019
     53  CD1       40.3450   25.0040   18.7060 C.3    34  LEU34       0.0001
     54  CD2       42.0410   26.5920   17.7760 C.3    34  LEU34       0.0001
     55  N         41.7780   22.5600   14.9490 N.am   35  MET35      -0.1979
     56  CA        41.1240   22.5290   13.6440 C.3    35  MET35       0.1605
     57  C         42.0110   21.8550   12.6050 C.2    35  MET35       0.2287
     58  O         43.2350   21.8380   12.7350 O.2    35  MET35      -0.2864
     59  CB        40.7790   23.9470   13.1760 C.3    35  MET35       0.0413
     60  CG        41.9860   24.8480   12.9400 C.3    35  MET35       0.0598
     61  SD        41.5330   26.4510   12.2410 S.3    35  MET35      -0.1393
     62  CE        40.9320   27.3040   13.7120 C.3    35  MET35       0.0692
     63  N         44.0410   37.9500    8.1920 N.3    51  LEU51      -0.1245
     64  CA        43.1810   38.3840    9.2910 C.3    51  LEU51       0.1561
     65  C         43.8290   39.4030   10.2120 C.2    51  LEU51       0.2260
     66  O         43.1340   40.1280   10.9210 O.2    51  LEU51      -0.2867
     67  CB        42.7530   37.1870   10.1450 C.3    51  LEU51       0.0270
     68  CG        41.5820   36.3390    9.6630 C.3    51  LEU51       0.0019
     69  CD1       41.3660   35.1890   10.6390 C.3    51  LEU51       0.0001
     70  CD2       40.3300   37.2050    9.5680 C.3    51  LEU51       0.0001
     71  N         41.9760   42.2770   12.8390 N.3    55  ILE55      -0.1245
     72  CA        42.0600   41.9650   14.2600 C.3    55  ILE55       0.1561
     73  C         42.8600   43.0410   14.9870 C.2    55  ILE55       0.2260
     74  O         42.5210   43.4230   16.1050 O.2    55  ILE55      -0.2867
     75  CB        42.6930   40.5750   14.4880 C.3    55  ILE55       0.0252
     76  CG1       41.8440   39.5110   13.7860 C.3    55  ILE55       0.0019
     77  CG2       42.7810   40.2690   15.9770 C.3    55  ILE55       0.0019
     78  CD1       40.3910   39.5230   14.1970 C.3    55  ILE55       0.0001
     79  N         40.5940   45.7740   15.7110 N.3    58  GLN58      -0.1245
     80  CA        39.7080   45.5230   16.8360 C.3    58  GLN58       0.1566
     81  C         40.4380   45.8380   18.1370 C.2    58  GLN58       0.2260
     82  O         39.8810   46.4780   19.0270 O.2    58  GLN58      -0.2867
     83  CB        39.2330   44.0660   16.8470 C.3    58  GLN58       0.0367
     84  CG        38.1820   43.7340   15.8000 C.3    58  GLN58       0.0905
     85  CD        37.6800   42.3100   15.9360 C.2    58  GLN58       0.2608
     86  OE1       37.8670   41.6800   16.9770 O.2    58  GLN58      -0.2717
     87  NE2       37.0280   41.8010   14.8960 N.am   58  GLN58      -0.0878
     88  N         37.3830   22.4620   23.0170 N.3   133  SER133     -0.1202
     89  CA        38.0780   23.4830   22.2390 C.3   133  SER133      0.2020
     90  C         38.7740   24.5500   23.0750 C.2   133  SER133      0.2619
     91  O         39.5480   25.3580   22.5470 O.2   133  SER133     -0.2717
     92  CB        37.1030   24.1530   21.2790 C.3   133  SER133      0.2103
     93  OG        36.5480   23.1930   20.3980 O.3   133  SER133     -0.2182
     94  N         38.4920   24.5780   24.3720 N.am  134  THR134     -0.1952
     95  CA        39.1380   25.5530   25.2350 C.3   134  THR134      0.1897
     96  C         40.0120   24.8170   26.2390 C.2   134  THR134      0.2313
     97  O         41.2190   24.6810   26.0330 O.2   134  THR134     -0.2863
     98  CB        38.1070   26.4520   25.9610 C.3   134  THR134      0.1794
     99  OG1       37.1740   25.6480   26.6930 O.3   134  THR134     -0.2208
    100  CG2       37.3480   27.2860   24.9420 C.3   134  THR134      0.0378
    101  N         30.6790   32.5970   24.6400 N.3   199  HIS199     -0.1241
    102  CA        31.1900   32.3360   23.3000 C.3   199  HIS199      0.1621
    103  C         30.4440   31.1200   22.7490 C.2   199  HIS199      0.2264
    104  O         30.2940   30.1080   23.4260 O.2   199  HIS199     -0.2867
    105  CB        32.6870   32.0510   23.3590 C.3   199  HIS199      0.0745
    106  CG        33.3770   32.1260   22.0300 C.ar  199  HIS199      0.0817
    107  ND1       33.1100   31.2550   20.9950 N.ar  199  HIS199     -0.2268
    108  CD2       34.3450   32.9600   21.5810 C.ar  199  HIS199      0.1154
    109  CE1       33.8870   31.5470   19.9660 C.ar  199  HIS199      0.1986
    110  NE2       34.6460   32.5780   20.2960 N.ar  199  HIS199     -0.2212
    111  N         29.5960   27.9350   19.9450 N.3   201  LEU201     -0.1231
    112  CA        30.3570   26.8160   19.4040 C.3   201  LEU201      0.1678
    113  C         29.6730   26.4080   18.1110 C.2   201  LEU201      0.2434
    114  O         28.4560   26.5580   17.9690 O.2   201  LEU201     -0.2733
    115  CB        30.3390   25.6110   20.3480 C.3   201  LEU201      0.0284
    116  CG        31.1430   25.6530   21.6480 C.3   201  LEU201      0.0019
    117  CD1       30.9340   24.3460   22.4100 C.3   201  LEU201      0.0001
    118  CD2       32.6180   25.8520   21.3350 C.3   201  LEU201      0.0001
    119  N         30.4490   25.9120   17.1350 N.am  202  PRO202     -0.2729
    120  CA        29.8400   25.4860   15.8730 C.3   202  PRO202      0.1401
    121  C         28.9670   24.2830   16.2150 C.2   202  PRO202      0.2269
    122  O         29.3130   23.5150   17.1150 O.2   202  PRO202     -0.2865
    123  CB        31.0420   25.0720   15.0300 C.3   202  PRO202      0.0296
    124  CG        32.1500   25.9190   15.5680 C.3   202  PRO202      0.0237
    125  CD        31.9180   25.8770   17.0550 C.3   202  PRO202      0.0939
    126  N         30.5050   20.8970   16.5740 N.3   205  VAL205     -0.1245
    127  CA        31.1670   20.6190   17.8480 C.3   205  VAL205      0.1561
    128  C         30.1240   20.2580   18.9090 C.2   205  VAL205      0.2260
    129  O         30.2930   19.2980   19.6560 O.2   205  VAL205     -0.2867
    130  CB        31.9920   21.8450   18.3110 C.3   205  VAL205      0.0252
    131  CG1       32.4950   21.6440   19.7290 C.3   205  VAL205      0.0019
    132  CG2       33.1750   22.0470   17.3600 C.3   205  VAL205      0.0019
    133  N         28.7750   16.7010   18.5860 N.3   208  ARG208     -0.1245
    134  CA        29.6320   15.5500   18.8340 C.3   208  ARG208      0.1563
    135  C         29.6270   15.2080   20.3230 C.2   208  ARG208      0.2260
    136  O         30.0930   14.1430   20.7260 O.2   208  ARG208     -0.2867
    137  CB        31.0610   15.8040   18.3340 C.3   208  ARG208      0.0307
    138  CG        31.8220   16.9000   19.0470 C.3   208  ARG208      0.0489
    139  CD        33.1480   17.1600   18.3440 C.3   208  ARG208      0.2205
    140  NE        33.9550   18.1550   19.0400 N.pl3 208  ARG208     -0.0865
    141  CZ        35.0880   18.6640   18.5660 C.cat 208  ARG208      0.5346
    142  NH1       35.5520   18.2730   17.3860 N.pl3 208  ARG208      0.1354
    143  NH2       35.7590   19.5600   19.2730 N.pl3 208  ARG208      0.1354
    144  N         30.0330   35.6920   19.2860 N.3   239  SER239     -0.1217
    145  CA        31.2610   35.3860   18.5660 C.3   239  SER239      0.1889
    146  C         31.2100   34.4180   17.3930 C.2   239  SER239      0.2288
    147  O         32.2530   33.9210   16.9720 O.2   239  SER239     -0.2866
    148  CB        32.3190   34.9050   19.5620 C.3   239  SER239      0.2089
    149  OG        32.4040   35.7860   20.6680 O.3   239  SER239     -0.2183
    150  N         31.3840   33.0660   13.7700 N.3   241  VAL241     -0.1245
    151  CA        32.1020   33.5510   12.5920 C.3   241  VAL241      0.1561
    152  C         31.9780   32.5010   11.4940 C.2   241  VAL241      0.2260
    153  O         31.8960   31.3060   11.7720 O.2   241  VAL241     -0.2867
    154  CB        33.6050   33.8080   12.8830 C.3   241  VAL241      0.0252
    155  CG1       33.7560   34.9260   13.9010 C.3   241  VAL241      0.0019
    156  CG2       34.2720   32.5460   13.3820 C.3   241  VAL241      0.0019
    157  N         26.0040   27.6110   13.9910 N.3   246  TRP246     -0.1241
    158  CA        26.5510   27.6440   15.3460 C.3   246  TRP246      0.1605
    159  C         25.3850   27.6430   16.3250 C.2   246  TRP246      0.2264
    160  O         24.2420   27.8950   15.9440 O.2   246  TRP246     -0.2867
    161  CB        27.3660   28.9180   15.5790 C.3   246  TRP246      0.0550
    162  CG        28.6860   28.9960   14.8750 C.ar  246  TRP246      0.0003
    163  CD1       28.9200   28.8610   13.5320 C.ar  246  TRP246      0.0946
    164  CD2       29.9450   29.3350   15.4680 C.ar  246  TRP246      0.0152
    165  NE1       30.2470   29.1040   13.2570 N.ar  246  TRP246     -0.2442
    166  CE2       30.8970   29.3980   14.4270 C.ar  246  TRP246      0.0810
    167  CE3       30.3590   29.5980   16.7800 C.ar  246  TRP246      0.0012
    168  CZ2       32.2370   29.7180   14.6580 C.ar  246  TRP246      0.0191
    169  CZ3       31.6920   29.9160   17.0120 C.ar  246  TRP246      0.0001
    170  CH2       32.6150   29.9750   15.9520 C.ar  246  TRP246      0.0015
    171  N         38.7890   40.6560   24.3710 N.3   278  ILE278     -0.1245
    172  CA        38.1610   41.1460   23.1530 C.3   278  ILE278      0.1561
    173  C         36.6420   40.9220   23.1140 C.2   278  ILE278      0.2260
    174  O         35.9080   41.7630   22.5960 O.2   278  ILE278     -0.2867
    175  CB        38.8330   40.5190   21.9050 C.3   278  ILE278      0.0252
    176  CG1       38.4960   41.3460   20.6630 C.3   278  ILE278      0.0019
    177  CG2       38.4050   39.0700   21.7440 C.3   278  ILE278      0.0019
    178  CD1       39.1840   42.6980   20.6340 C.3   278  ILE278      0.0001
@<TRIPOS>BOND
     1    63    64    1
     2    64    67    1
     3    64    65    1
     4    70    68    1
     5    68    67    1
     6    68    69    1
     7    65    66    2
     8   152   153    2
     9   152   151    1
    10    42    44   ar
    11    42    41   ar
    12    44    46   ar
    13    41    40    1
    14    41    43   ar
    15    40    37    1
    16    46    45   ar
    17    43    45   ar
    18    39    38    2
    19    61    60    1
    20    61    62    1
    21   151   154    1
    22   151   150    1
    23    57    58    2
    24    57    56    1
    25    38    37    1
    26    71    72    1
    27    37    36    1
    28   154   156    1
    29   154   155    1
    30    60    59    1
    31    26    25    1
    32    59    56    1
    33   165   163   ar
    34   165   166   ar
    35   163   162   ar
    36    56    55    1
    37    24    25    1
    38    24    21    1
    39    76    78    1
    40    76    75    1
    41    23    22    2
    42   157   158    1
    43    36    30   am
    44    22    21    1
    45    25    27    1
    46    72    75    1
    47    72    73    1
    48   166   168   ar
    49   166   164   ar
    50    75    77    1
    51   168   170   ar
    52    21    20    1
    53   162   164   ar
    54   162   161    1
    55    87    85   am
    56    55    49   am
    57    73    74    2
    58   123   124    1
    59   123   120    1
    60    30    31    2
    61    30    29    1
    62   158   161    1
    63   158   159    1
    64    35    33    1
    65   164   167   ar
    66   124   125    1
    67    79    80    1
    68    20    11   am
    69    84    85    1
    70    84    83    1
    71   120   121    1
    72   120   119    1
    73    85    86    2
    74   160   159    2
    75   170   169   ar
    76    49    50    2
    77    49    48    1
    78   121   122    2
    79    28    29    1
    80    29    32    1
    81   126   127    1
    82    32    33    1
    83   167   169   ar
    84    33    34    1
    85    80    83    1
    86    80    81    1
    87    11    12    2
    88    11    10    1
    89   147   146    2
    90   125   119    1
    91     9    10    1
    92   119   113   am
    93    47    48    1
    94   132   130    1
    95    48    51    1
    96   142   141    1
    97   146   145    1
    98    52    51    1
    99    52    54    1
   100    52    53    1
   101   127   130    1
   102   127   128    1
   103    10    13    1
   104   114   113    2
   105   113   112    1
   106    81    82    2
   107   130   131    1
   108   137   134    1
   109   137   138    1
   110    16    18   ar
   111    16    14   ar
   112   139   140    1
   113   139   138    1
   114    13    14    1
   115   141   140    2
   116   141   143    1
   117   145   144    1
   118   145   148    1
   119   133   134    1
   120    18    19   ar
   121   134   135    1
   122    14    15   ar
   123   128   129    2
   124   112   111    1
   125   112   115    1
   126   148   149    1
   127    19    17   ar
   128    15    17   ar
   129   109   110   ar
   130   109   107   ar
   131   110   108   ar
   132   135   136    2
   133   115   116    1
   134    93    92    1
   135   178   176    1
   136   176   175    1
   137   107   106   ar
   138    92    89    1
   139   118   116    1
   140   108   106   ar
   141   116   117    1
   142     7     8    1
   143     7     6    1
   144   177   175    1
   145   175   172    1
   146   106   105    1
   147    89    88    1
   148    89    90    1
   149    91    90    2
   150   174   173    2
   151   103   102    1
   152   103   104    2
   153     6     5    1
   154    90    94   am
   155   173   172    1
   156   172   171    1
   157   102   105    1
   158   102   101    1
   159     5     2    1
   160    94    95    1
   161     4     3    2
   162   100    98    1
   163     3     2    1
   164    95    98    1
   165    95    96    1
   166     2     1    1
   167    98    99    1
   168    97    96    2
