@<TRIPOS>MOLECULE
tmp/2hrcB00.pdb
 139 135 0 0 0
SMALL
GASTEIGER

@<TRIPOS>ATOM
      1  N         47.3950   29.6700   16.4280 N.3    28  LEU28      -0.1231
      2  CA        46.0470   29.1290   16.4970 C.3    28  LEU28       0.1693
      3  C         45.6880   28.3000   15.2640 C.2    28  LEU28       0.2592
      4  O         45.1300   27.2090   15.3800 O.2    28  LEU28      -0.2718
      5  CB        45.0500   30.2750   16.6820 C.3    28  LEU28       0.0284
      6  CG        43.5730   29.9090   16.8090 C.3    28  LEU28       0.0019
      7  CD1       42.8640   30.9780   17.6180 C.3    28  LEU28       0.0001
      8  CD2       42.9520   29.7590   15.4320 C.3    28  LEU28       0.0001
      9  N         46.0110   28.8080   14.0820 N.am   29  PHE29      -0.1976
     10  CA        45.6970   28.0800   12.8600 C.3    29  PHE29       0.1639
     11  C         46.6090   26.8790   12.6290 C.2    29  PHE29       0.2290
     12  O         46.3560   26.0650   11.7440 O.2    29  PHE29      -0.2864
     13  CB        45.7320   29.0290   11.6580 C.3    29  PHE29       0.0560
     14  CG        44.6070   30.0250   11.6510 C.ar   29  PHE29      -0.0200
     15  CD1       44.8650   31.3910   11.6200 C.ar   29  PHE29      -0.0042
     16  CD2       43.2850   29.5960   11.7020 C.ar   29  PHE29      -0.0042
     17  CE1       43.8190   32.3150   11.6430 C.ar   29  PHE29      -0.0003
     18  CE2       42.2350   30.5110   11.7250 C.ar   29  PHE29      -0.0003
     19  CZ        42.5040   31.8740   11.6960 C.ar   29  PHE29      -0.0000
     20  N         42.9810   21.7490   17.3530 N.3    34  LEU34      -0.1231
     21  CA        41.8830   22.7140   17.3730 C.3    34  LEU34       0.1693
     22  C         41.0830   22.7080   16.0730 C.2    34  LEU34       0.2592
     23  O         39.8590   22.8500   16.0900 O.2    34  LEU34      -0.2718
     24  CB        42.4180   24.1240   17.6300 C.3    34  LEU34       0.0284
     25  CG        41.3670   25.2390   17.6030 C.3    34  LEU34       0.0019
     26  CD1       40.3450   25.0040   18.7060 C.3    34  LEU34       0.0001
     27  CD2       42.0410   26.5920   17.7760 C.3    34  LEU34       0.0001
     28  N         41.7780   22.5600   14.9490 N.am   35  MET35      -0.1965
     29  CA        41.1240   22.5290   13.6440 C.3    35  MET35       0.1736
     30  C         42.0110   21.8550   12.6050 C.2    35  MET35       0.2617
     31  O         43.2350   21.8380   12.7350 O.2    35  MET35      -0.2715
     32  CB        40.7790   23.9470   13.1760 C.3    35  MET35       0.0427
     33  CG        41.9860   24.8480   12.9400 C.3    35  MET35       0.0599
     34  SD        41.5330   26.4510   12.2410 S.3    35  MET35      -0.1393
     35  CE        40.9320   27.3040   13.7120 C.3    35  MET35       0.0692
     36  N         41.3820   21.2960   11.5770 N.am   36  THR36      -0.1937
     37  CA        42.1040   20.6210   10.5070 C.3    36  THR36       0.2028
     38  C         41.8740   21.3530    9.1910 C.2    36  THR36       0.2642
     39  O         40.7380   21.5030    8.7420 O.2    36  THR36      -0.2714
     40  CB        41.6400   19.1570   10.3570 C.3    36  THR36       0.1808
     41  OG1       41.8690   18.4570   11.5870 O.3    36  THR36      -0.2208
     42  CG2       42.4070   18.4650    9.2400 C.3    36  THR36       0.0379
     43  N         42.9610   21.8120    8.5830 N.am   37  LEU37      -0.1977
     44  CA        42.8890   22.5370    7.3200 C.3    37  LEU37       0.1596
     45  C         43.7640   21.8690    6.2690 C.2    37  LEU37       0.2287
     46  O         44.8000   21.2860    6.5920 O.2    37  LEU37      -0.2864
     47  CB        43.3760   23.9760    7.5050 C.3    37  LEU37       0.0297
     48  CG        42.6900   24.8760    8.5350 C.3    37  LEU37       0.0022
     49  CD1       43.4850   26.1630    8.6810 C.3    37  LEU37       0.0001
     50  CD2       41.2650   25.1680    8.1060 C.3    37  LEU37       0.0001
     51  N         46.3590   32.5780    6.3000 N.3    47  ILE47      -0.1245
     52  CA        45.1340   33.0410    6.9320 C.3    47  ILE47       0.1561
     53  C         45.4640   34.0330    8.0420 C.2    47  ILE47       0.2260
     54  O         44.7720   35.0330    8.2210 O.2    47  ILE47      -0.2867
     55  CB        44.3350   31.8670    7.5260 C.3    47  ILE47       0.0252
     56  CG1       43.9230   30.9050    6.4080 C.3    47  ILE47       0.0019
     57  CG2       43.1080   32.3940    8.2570 C.3    47  ILE47       0.0019
     58  CD1       43.2240   29.6530    6.9030 C.3    47  ILE47       0.0001
     59  N         46.1640   37.3810    6.4950 N.3    50  ARG50      -0.1231
     60  CA        44.9890   38.0500    5.9550 C.3    50  ARG50       0.1694
     61  C         44.0550   38.5930    7.0280 C.2    50  ARG50       0.2591
     62  O         43.3630   39.5830    6.8020 O.2    50  ARG50      -0.2718
     63  CB        44.2090   37.1230    5.0200 C.3    50  ARG50       0.0321
     64  CG        43.6490   35.8710    5.6520 C.3    50  ARG50       0.0489
     65  CD        42.3410   35.5000    4.9710 C.3    50  ARG50       0.2205
     66  NE        42.4130   35.7130    3.5280 N.pl3  50  ARG50      -0.0865
     67  CZ        41.3550   35.7940    2.7260 C.cat  50  ARG50       0.5346
     68  NH1       40.1300   35.6770    3.2180 N.pl3  50  ARG50       0.1354
     69  NH2       41.5220   36.0060    1.4290 N.pl3  50  ARG50       0.1354
     70  N         44.0410   37.9500    8.1920 N.am   51  LEU51      -0.1980
     71  CA        43.1810   38.3840    9.2910 C.3    51  LEU51       0.1596
     72  C         43.8290   39.4030   10.2120 C.2    51  LEU51       0.2287
     73  O         43.1340   40.1280   10.9210 O.2    51  LEU51      -0.2864
     74  CB        42.7530   37.1870   10.1450 C.3    51  LEU51       0.0297
     75  CG        41.5820   36.3390    9.6630 C.3    51  LEU51       0.0022
     76  CD1       41.3660   35.1890   10.6390 C.3    51  LEU51       0.0001
     77  CD2       40.3300   37.2050    9.5680 C.3    51  LEU51       0.0001
     78  N         42.4970   43.3220   10.2810 N.3    54  LYS54      -0.1245
     79  CA        41.1980   43.5330   10.9100 C.3    54  LYS54       0.1561
     80  C         41.2240   43.2850   12.4130 C.2    54  LYS54       0.2260
     81  O         40.5670   43.9930   13.1730 O.2    54  LYS54      -0.2867
     82  CB        40.1360   42.6370   10.2750 C.3    54  LYS54       0.0271
     83  CG        40.4440   41.1550   10.3470 C.3    54  LYS54       0.0035
     84  CD        39.1810   40.3090   10.4910 C.3    54  LYS54       0.0206
     85  CE        38.0950   40.6960    9.4950 C.3    54  LYS54       0.1093
     86  NZ        37.4260   41.9780    9.8560 N.3    54  LYS54      -0.1314
     87  N         30.4490   25.9120   17.1350 N.3   202  PRO202     -0.2116
     88  CA        29.8400   25.4860   15.8730 C.3   202  PRO202      0.1372
     89  C         28.9670   24.2830   16.2150 C.2   202  PRO202      0.2244
     90  O         29.3130   23.5150   17.1150 O.2   202  PRO202     -0.2868
     91  CB        31.0420   25.0720   15.0300 C.3   202  PRO202      0.0268
     92  CG        32.1500   25.9190   15.5680 C.3   202  PRO202      0.0207
     93  CD        31.9180   25.8770   17.0550 C.3   202  PRO202      0.0892
     94  N         28.6830   21.6000   14.7110 N.3   204  SER204     -0.1217
     95  CA        29.4060   20.3570   14.4740 C.3   204  SER204      0.1889
     96  C         30.1010   19.9210   15.7630 C.2   204  SER204      0.2288
     97  O         30.2490   18.7250   16.0270 O.2   204  SER204     -0.2866
     98  CB        30.4270   20.5280   13.3410 C.3   204  SER204      0.2089
     99  OG        31.3410   21.5750   13.6150 O.3   204  SER204     -0.2183
    100  N         31.3840   33.0660   13.7700 N.3   241  VAL241     -0.1231
    101  CA        32.1020   33.5510   12.5920 C.3   241  VAL241      0.1692
    102  C         31.9780   32.5010   11.4940 C.2   241  VAL241      0.2593
    103  O         31.8960   31.3060   11.7720 O.2   241  VAL241     -0.2718
    104  CB        33.6050   33.8080   12.8830 C.3   241  VAL241      0.0266
    105  CG1       33.7560   34.9260   13.9010 C.3   241  VAL241      0.0020
    106  CG2       34.2720   32.5460   13.3820 C.3   241  VAL241      0.0020
    107  N         31.9490   32.9460   10.2440 N.am  242  GLY242     -0.1943
    108  CA        31.8280   32.0000    9.1510 C.3   242  GLY242      0.1998
    109  C         30.3820   31.7290    8.7800 C.2   242  GLY242      0.2481
    110  O         29.4620   32.1740    9.4680 O.2   242  GLY242     -0.2729
    111  N         30.1510   30.9850    7.6890 N.am  243  PRO243     -0.2715
    112  CA        28.8110   30.6470    7.2040 C.3   243  PRO243      0.1536
    113  C         28.1880   29.3700    7.7720 C.2   243  PRO243      0.2598
    114  O         27.0300   29.0700    7.4870 O.2   243  PRO243     -0.2715
    115  CB        29.0290   30.5480    5.7030 C.3   243  PRO243      0.0310
    116  CG        30.3560   29.8620    5.6440 C.3   243  PRO243      0.0237
    117  CD        31.1730   30.6030    6.6970 C.3   243  PRO243      0.0939
    118  N         28.9450   28.6190    8.5640 N.am  244  MET244     -0.1978
    119  CA        28.4430   27.3710    9.1370 C.3   244  MET244      0.1605
    120  C         27.4720   27.6180   10.2930 C.2   244  MET244      0.2287
    121  O         27.4440   28.7050   10.8680 O.2   244  MET244     -0.2864
    122  CB        29.6170   26.5150    9.6120 C.3   244  MET244      0.0413
    123  CG        29.6990   25.1420    8.9600 C.3   244  MET244      0.0598
    124  SD        29.6540   25.1950    7.1500 S.3   244  MET244     -0.1393
    125  CE        31.3030   25.7790    6.7760 C.3   244  MET244      0.0692
    126  N         26.0040   27.6110   13.9910 N.3   246  TRP246     -0.1241
    127  CA        26.5510   27.6440   15.3460 C.3   246  TRP246      0.1605
    128  C         25.3850   27.6430   16.3250 C.2   246  TRP246      0.2264
    129  O         24.2420   27.8950   15.9440 O.2   246  TRP246     -0.2867
    130  CB        27.3660   28.9180   15.5790 C.3   246  TRP246      0.0550
    131  CG        28.6860   28.9960   14.8750 C.ar  246  TRP246      0.0003
    132  CD1       28.9200   28.8610   13.5320 C.ar  246  TRP246      0.0946
    133  CD2       29.9450   29.3350   15.4680 C.ar  246  TRP246      0.0152
    134  NE1       30.2470   29.1040   13.2570 N.ar  246  TRP246     -0.2442
    135  CE2       30.8970   29.3980   14.4270 C.ar  246  TRP246      0.0810
    136  CE3       30.3590   29.5980   16.7800 C.ar  246  TRP246      0.0012
    137  CZ2       32.2370   29.7180   14.6580 C.ar  246  TRP246      0.0191
    138  CZ3       31.6920   29.9160   17.0120 C.ar  246  TRP246      0.0001
    139  CH2       32.6150   29.9750   15.9520 C.ar  246  TRP246      0.0015
@<TRIPOS>BOND
     1    69    67    1
     2    67    68    1
     3    67    66    2
     4    66    65    1
     5    65    64    1
     6    63    64    1
     7    63    60    1
     8   116   115    1
     9   116   117    1
    10   115   112    1
    11    60    59    1
    12    60    61    1
    13    45    46    2
    14    45    44    1
    15    51    52    1
    16    56    58    1
    17    56    55    1
    18   117   111    1
    19   125   124    1
    20    62    61    2
    21    52    55    1
    22    52    53    1
    23    61    70   am
    24   124   123    1
    25   112   111    1
    26   112   113    1
    27    44    47    1
    28    44    43    1
    29   114   113    2
    30    47    48    1
    31    55    57    1
    32   111   109   am
    33   113   118   am
    34    53    54    2
    35    50    48    1
    36    70    71    1
    37    48    49    1
    38   118   119    1
    39    43    38   am
    40    39    38    2
    41   109   108    1
    42   109   110    2
    43   123   122    1
    44   119   122    1
    45   119   120    1
    46   108   107    1
    47    38    37    1
    48    42    40    1
    49    71    74    1
    50    71    72    1
    51    85    86    1
    52    85    84    1
    53    77    75    1
    54    75    74    1
    55    75    76    1
    56    72    73    2
    57   107   102   am
    58    82    83    1
    59    82    79    1
    60    78    79    1
    61   120   121    2
    62    83    84    1
    63    40    37    1
    64    40    41    1
    65    37    36    1
    66    79    80    1
    67   102   103    2
    68   102   101    1
    69    36    30   am
    70    15    17   ar
    71    15    14   ar
    72    17    19   ar
    73    14    13    1
    74    14    16   ar
    75    13    10    1
    76    19    18   ar
    77    16    18   ar
    78    12    11    2
    79    34    33    1
    80    34    35    1
    81    80    81    2
    82   101   104    1
    83   101   100    1
    84    30    31    2
    85    30    29    1
    86    11    10    1
    87    10     9    1
    88   104   106    1
    89   104   105    1
    90    33    32    1
    91    32    29    1
    92   134   132   ar
    93   134   135   ar
    94    98    99    1
    95    98    95    1
    96   132   131   ar
    97    29    28    1
    98   126   127    1
    99     9     3   am
   100   135   137   ar
   101   135   133   ar
   102    95    94    1
   103    95    96    1
   104   137   139   ar
   105   131   133   ar
   106   131   130    1
   107    28    22   am
   108    91    92    1
   109    91    88    1
   110     3     4    2
   111     3     2    1
   112   127   130    1
   113   127   128    1
   114     8     6    1
   115   133   136   ar
   116    92    93    1
   117    96    97    2
   118    88    89    1
   119    88    87    1
   120   129   128    2
   121   139   138   ar
   122    22    23    2
   123    22    21    1
   124    89    90    2
   125     1     2    1
   126     2     5    1
   127     5     6    1
   128   136   138   ar
   129     6     7    1
   130    93    87    1
   131    20    21    1
   132    21    24    1
   133    25    24    1
   134    25    27    1
   135    25    26    1
