@<TRIPOS>MOLECULE
tmp/2hrdB01.pdb
 87 83 0 0 0
SMALL
GASTEIGER

@<TRIPOS>ATOM
      1  N         16.1800   -0.1420  -13.8890 N.3   166  GLU166     -0.1245
      2  CA        17.4370    0.0440  -13.1690 C.3   166  GLU166      0.1567
      3  C         18.5940    0.4900  -14.0610 C.2   166  GLU166      0.2260
      4  O         19.7100   -0.0350  -13.9740 O.2   166  GLU166     -0.2867
      5  CB        17.8050   -1.1910  -12.3400 C.3   166  GLU166      0.0388
      6  CG        18.5290   -0.8040  -11.0560 C.3   166  GLU166      0.1160
      7  CD        19.0810   -1.9740  -10.2750 C.2   166  GLU166      0.3649
      8  OE1       19.8590   -1.7120   -9.3320 O.co2 166  GLU166     -0.2457
      9  OE2       18.7450   -3.1380  -10.5860 O.co2 166  GLU166     -0.2457
     10  N         21.1940    3.3970  -14.6880 N.3   168  TYR168     -0.1241
     11  CA        21.8760    4.4020  -13.8660 C.3   168  TYR168      0.1605
     12  C         22.5650    5.5010  -14.6690 C.2   168  TYR168      0.2264
     13  O         23.0190    6.4960  -14.0930 O.2   168  TYR168     -0.2867
     14  CB        22.9210    3.7300  -12.9710 C.3   168  TYR168      0.0534
     15  CG        22.3250    2.9350  -11.8440 C.ar  168  TYR168     -0.0201
     16  CD1       22.1490    1.5580  -11.9540 C.ar  168  TYR168     -0.0009
     17  CD2       21.9270    3.5620  -10.6670 C.ar  168  TYR168     -0.0009
     18  CE1       21.5940    0.8220  -10.9120 C.ar  168  TYR168      0.0417
     19  CE2       21.3730    2.8420   -9.6250 C.ar  168  TYR168      0.0417
     20  CZ        21.2010    1.4720   -9.7540 C.ar  168  TYR168      0.1957
     21  OH        20.6420    0.7650   -8.7160 O.3   168  TYR168     -0.2866
     22  N         18.5060   -2.7880   -7.1710 N.3   181  GLY181     -0.1225
     23  CA        18.7440   -4.2270   -7.2190 C.3   181  GLY181      0.1811
     24  C         17.6570   -5.0240   -7.9200 C.2   181  GLY181      0.2280
     25  O         17.7150   -6.2530   -7.9500 O.2   181  GLY181     -0.2866
     26  N         16.7910   -5.3540  -11.1600 N.3   183  MET183     -0.1230
     27  CA        17.1600   -6.1200  -12.3460 C.3   183  MET183      0.1702
     28  C         17.7280   -7.4960  -11.9870 C.2   183  MET183      0.2592
     29  O         17.3080   -8.4990  -12.5580 O.2   183  MET183     -0.2718
     30  CB        18.1140   -5.3540  -13.2590 C.3   183  MET183      0.0401
     31  CG        18.4090   -6.1260  -14.5400 C.3   183  MET183      0.0596
     32  SD        19.3380   -5.2100  -15.7610 S.3   183  MET183     -0.1393
     33  CE        20.9020   -4.9900  -14.9390 C.3   183  MET183      0.0692
     34  N         18.6530   -7.5400  -11.0250 N.am  184  GLU184     -0.1979
     35  CA        19.2510   -8.7970  -10.5480 C.3   184  GLU184      0.1602
     36  C         18.1780   -9.7320  -10.0030 C.2   184  GLU184      0.2287
     37  O         18.2440  -10.9580  -10.1730 O.2   184  GLU184     -0.2864
     38  CB        20.2970   -8.5190   -9.4550 C.3   184  GLU184      0.0415
     39  CG        21.1300   -9.7420   -9.0120 C.3   184  GLU184      0.1163
     40  CD        20.4120  -10.6670   -8.0220 C.2   184  GLU184      0.3649
     41  OE1       19.5920  -10.1860   -7.2120 O.co2 184  GLU184     -0.2457
     42  OE2       20.6780  -11.8880   -8.0510 O.co2 184  GLU184     -0.2457
     43  N         21.1280   -6.0900  -21.4380 N.3   222  ARG222     -0.1231
     44  CA        21.3380   -5.2850  -20.2410 C.3   222  ARG222      0.1694
     45  C         22.3910   -5.8350  -19.2880 C.2   222  ARG222      0.2593
     46  O         22.8270   -5.1280  -18.3740 O.2   222  ARG222     -0.2718
     47  CB        20.0060   -5.0670  -19.5150 C.3   222  ARG222      0.0321
     48  CG        19.0390   -4.1560  -20.2750 C.3   222  ARG222      0.0489
     49  CD        19.5540   -2.7030  -20.3460 C.3   222  ARG222      0.2205
     50  NE        19.9710   -2.2380  -19.0250 N.pl3 222  ARG222     -0.0865
     51  CZ        19.1330   -1.8940  -18.0460 C.cat 222  ARG222      0.5346
     52  NH1       17.8180   -1.9430  -18.2330 N.pl3 222  ARG222      0.1354
     53  NH2       19.6120   -1.5110  -16.8690 N.pl3 222  ARG222      0.1354
     54  N         22.7950   -7.0890  -19.4880 N.am  223  THR223     -0.1939
     55  CA        23.9120   -7.6450  -18.7160 C.3   223  THR223      0.2028
     56  C         25.2370   -7.0360  -19.1760 C.2   223  THR223      0.2642
     57  O         26.2700   -7.2080  -18.5200 O.2   223  THR223     -0.2714
     58  CB        23.9970   -9.1920  -18.7930 C.3   223  THR223      0.1808
     59  OG1       24.3640   -9.5990  -20.1170 O.3   223  THR223     -0.2208
     60  CG2       22.6770   -9.8370  -18.4160 C.3   223  THR223      0.0379
     61  N         25.1930   -6.3090  -20.2930 N.am  224  GLN224     -0.1963
     62  CA        26.3980   -5.7440  -20.9080 C.3   224  GLN224      0.1733
     63  C         26.4070   -4.2210  -20.9530 C.2   224  GLN224      0.2616
     64  O         27.4350   -3.5970  -20.6840 O.2   224  GLN224     -0.2715
     65  CB        26.5710   -6.2990  -22.3220 C.3   224  GLN224      0.0408
     66  CG        26.7660   -7.8140  -22.3670 C.3   224  GLN224      0.0908
     67  CD        26.1710   -8.4440  -23.6120 C.2   224  GLN224      0.2608
     68  OE1       25.9860   -7.7810  -24.6370 O.2   224  GLN224     -0.2717
     69  NE2       25.8660   -9.7300  -23.5280 N.am  224  GLN224     -0.0878
     70  N         25.2720   -3.6270  -21.3160 N.am  225  GLN225     -0.1963
     71  CA        25.1700   -2.1720  -21.4490 C.3   225  GLN225      0.1733
     72  C         23.7330   -1.7010  -21.2690 C.2   225  GLN225      0.2616
     73  O         22.7910   -2.4740  -21.4480 O.2   225  GLN225     -0.2715
     74  CB        25.7130   -1.7140  -22.8090 C.3   225  GLN225      0.0408
     75  CG        24.9120   -2.2310  -23.9920 C.3   225  GLN225      0.0908
     76  CD        25.6310   -2.1360  -25.3290 C.2   225  GLN225      0.2608
     77  OE1       25.2350   -2.7980  -26.2890 O.2   225  GLN225     -0.2717
     78  NE2       26.6780   -1.3120  -25.4050 N.am  225  GLN225     -0.0878
     79  N         23.5760   -0.4260  -20.9270 N.am  226  GLU226     -0.1977
     80  CA        22.2510    0.1630  -20.7340 C.3   226  GLU226      0.1602
     81  C         21.6260    0.6260  -22.0420 C.2   226  GLU226      0.2287
     82  O         20.4070    0.5920  -22.2000 O.2   226  GLU226     -0.2864
     83  CB        22.3310    1.3320  -19.7560 C.3   226  GLU226      0.0415
     84  CG        22.7780    0.9080  -18.3670 C.3   226  GLU226      0.1163
     85  CD        22.5280    1.9560  -17.3100 C.2   226  GLU226      0.3649
     86  OE1       22.0670    3.0660  -17.6550 O.co2 226  GLU226     -0.2457
     87  OE2       22.7850    1.6580  -16.1230 O.co2 226  GLU226     -0.2457
@<TRIPOS>BOND
     1    77    76    2
     2    78    76   am
     3    76    75    1
     4    68    67    2
     5    75    74    1
     6    67    69   am
     7    67    66    1
     8    74    71    1
     9    66    65    1
    10    65    62    1
    11    82    81    2
    12    81    80    1
    13    71    70    1
    14    71    72    1
    15    73    72    2
    16    43    44    1
    17    70    63   am
    18    72    79   am
    19    63    62    1
    20    63    64    2
    21    79    80    1
    22    62    61    1
    23    80    83    1
    24    49    48    1
    25    49    50    1
    26    61    56   am
    27    48    47    1
    28    44    47    1
    29    44    45    1
    30    59    58    1
    31    83    84    1
    32    54    45   am
    33    54    55    1
    34    45    46    2
    35    56    55    1
    36    56    57    2
    37    50    51    2
    38    58    55    1
    39    58    60    1
    40    84    85    1
    41    52    51    1
    42    51    53    1
    43    86    85   ar
    44    85    87   ar
    45    32    33    1
    46    32    31    1
    47    10    11    1
    48    12    13    2
    49    12    11    1
    50    31    30    1
    51     3     4    2
    52     3     2    1
    53     1     2    1
    54    11    14    1
    55    30    27    1
    56     2     5    1
    57    14    15    1
    58    29    28    2
    59    27    28    1
    60    27    26    1
    61     5     6    1
    62    28    34   am
    63    16    15   ar
    64    16    18   ar
    65    15    17   ar
    66     6     7    1
    67    34    35    1
    68    18    20   ar
    69    17    19   ar
    70     9     7   ar
    71    35    36    1
    72    35    38    1
    73     7     8   ar
    74    37    36    2
    75    20    19   ar
    76    20    21    1
    77    38    39    1
    78    39    40    1
    79    42    40   ar
    80    40    41   ar
    81    25    24    2
    82    24    23    1
    83    23    22    1
