@<TRIPOS>MOLECULE
tmp/2hrmA00.pdb
 103 98 0 0 0
SMALL
GASTEIGER

@<TRIPOS>ATOM
      1  N         30.7010   18.5170    6.7670 N.3    68  MET68      -0.1245
      2  CA        30.6250   17.4800    5.7520 C.3    68  MET68       0.1570
      3  C         31.8580   17.5720    4.8470 C.2    68  MET68       0.2261
      4  O         32.2670   18.6770    4.4250 O.2    68  MET68      -0.2867
      5  CB        29.3540   17.6420    4.8810 C.3    68  MET68       0.0387
      6  CG        28.0420   17.2790    5.5820 C.3    68  MET68       0.0595
      7  SD        26.6770   17.4890    4.3420 S.3    68  MET68      -0.1393
      8  CE        25.2920   16.8910    5.2700 C.3    68  MET68       0.0692
      9  N         32.5150   17.4160   -3.0880 N.3    82  LEU82      -0.1245
     10  CA        31.3620   18.3030   -2.7740 C.3    82  LEU82       0.1561
     11  C         31.4290   19.5710   -3.5810 C.2    82  LEU82       0.2260
     12  O         32.5160   20.1520   -3.7430 O.2    82  LEU82      -0.2867
     13  CB        31.3370   18.6510   -1.2930 C.3    82  LEU82       0.0270
     14  CG        31.3630   17.4390   -0.3280 C.3    82  LEU82       0.0019
     15  CD1       31.3090   17.9090    1.1690 C.3    82  LEU82       0.0001
     16  CD2       30.2440   16.4990   -0.5930 C.3    82  LEU82       0.0001
     17  N         30.3070   22.5330   -2.7510 N.3    84  ASN84      -0.1240
     18  CA        30.6150   23.6390   -1.8390 C.3    84  ASN84       0.1653
     19  C         31.9380   23.4040   -1.0790 C.2    84  ASN84       0.2266
     20  O         32.3200   24.1410   -0.1820 O.2    84  ASN84      -0.2867
     21  CB        29.3920   23.9310   -0.8870 C.3    84  ASN84       0.1155
     22  CG        28.9060   22.7030   -0.0850 C.2    84  ASN84       0.2627
     23  OD1       29.1560   21.5510   -0.4180 O.2    84  ASN84      -0.2716
     24  ND2       28.1300   22.9810    0.9840 N.am   84  ASN84      -0.0877
     25  N         30.8520   21.3170    3.7610 N.3    87  GLY87      -0.1210
     26  CA        29.4960   21.7090    4.1800 C.3    87  GLY87       0.1956
     27  C         29.4080   21.9970    5.6750 C.2    87  GLY87       0.2612
     28  O         29.5700   21.0740    6.4810 O.2    87  GLY87      -0.2717
     29  N         29.0560   23.2200    6.0660 N.am   88  LEU88      -0.1965
     30  CA        29.0160   23.5680    7.4750 C.3    88  LEU88       0.1728
     31  C         27.5860   23.4340    8.0100 C.2    88  LEU88       0.2616
     32  O         26.6630   23.9920    7.4300 O.2    88  LEU88      -0.2715
     33  CB        29.5510   25.0150    7.6650 C.3    88  LEU88       0.0311
     34  CG        29.5910   25.5020    9.0860 C.3    88  LEU88       0.0022
     35  CD1       30.5770   24.6810    9.9000 C.3    88  LEU88       0.0001
     36  CD2       29.9480   27.0220    9.1090 C.3    88  LEU88       0.0001
     37  N         27.4070   22.6420    9.0620 N.am   89  ILE89      -0.1963
     38  CA        26.1030   22.3950    9.6940 C.3    89  ILE89       0.1727
     39  C         26.0070   23.1460   11.0510 C.2    89  ILE89       0.2616
     40  O         26.7800   22.8460   11.9650 O.2    89  ILE89      -0.2715
     41  CB        25.8280   20.8750    9.8930 C.3    89  ILE89       0.0290
     42  CG1       26.1680   20.0120    8.6520 C.3    89  ILE89       0.0022
     43  CG2       24.3730   20.7110   10.3650 C.3    89  ILE89       0.0023
     44  CD1       25.5170   20.4220    7.3730 C.3    89  ILE89       0.0001
     45  N         25.1850   24.2070   11.1000 N.am   90  ASP90      -0.1971
     46  CA        24.9110   25.0350   12.2900 C.3    90  ASP90       0.1709
     47  C         24.1460   24.2920   13.4060 C.2    90  ASP90       0.2293
     48  O         23.2770   23.4300   13.1400 O.2    90  ASP90      -0.2864
     49  CB        24.1450   26.3060   11.9020 C.3    90  ASP90       0.1436
     50  CG        24.8610   27.0780   10.8370 C.2    90  ASP90       0.3671
     51  OD1       25.9710   27.5670   11.1290 O.co2  90  ASP90      -0.2456
     52  OD2       24.3910   27.1010    9.6770 O.co2  90  ASP90      -0.2456
     53  N         20.3260   24.4510   12.9460 N.3    93  TYR93      -0.1241
     54  CA        19.7010   23.9370   11.7150 C.3    93  TYR93       0.1605
     55  C         18.8770   22.6720   12.0200 C.2    93  TYR93       0.2264
     56  O         19.3930   21.7570   12.6130 O.2    93  TYR93      -0.2867
     57  CB        20.7610   23.6120   10.6800 C.3    93  TYR93       0.0534
     58  CG        20.1810   23.1230    9.3770 C.ar   93  TYR93      -0.0201
     59  CD1       20.3450   21.8210    8.9780 C.ar   93  TYR93      -0.0009
     60  CD2       19.4100   23.9550    8.5820 C.ar   93  TYR93      -0.0009
     61  CE1       19.8170   21.3430    7.7460 C.ar   93  TYR93       0.0417
     62  CE2       18.8890   23.5060    7.3600 C.ar   93  TYR93       0.0417
     63  CZ        19.1040   22.1960    6.9580 C.ar   93  TYR93       0.1957
     64  OH        18.5860   21.7300    5.7570 O.3    93  TYR93      -0.2866
     65  N         16.4720   18.9060    6.5590 N.3    96  GLN96      -0.1231
     66  CA        17.1520   17.7160    6.0210 C.3    96  GLN96       0.1698
     67  C         18.5810   18.0700    5.6500 C.2    96  GLN96       0.2592
     68  O         18.8170   19.1130    5.0240 O.2    96  GLN96      -0.2718
     69  CB        16.4100   17.2670    4.7820 C.3    96  GLN96       0.0381
     70  CG        16.9580   15.9900    4.1520 C.3    96  GLN96       0.0905
     71  CD        16.1130   15.3760    3.0290 C.2    96  GLN96       0.2608
     72  OE1       16.2760   14.1900    2.7670 O.2    96  GLN96      -0.2717
     73  NE2       15.2760   16.1630    2.3290 N.am   96  GLN96      -0.0878
     74  N         19.5190   17.1560    5.9490 N.am   97  LEU97      -0.1966
     75  CA        20.9090   17.2560    5.5260 C.3    97  LEU97       0.1728
     76  C         20.9450   16.9060    4.0370 C.2    97  LEU97       0.2616
     77  O         20.4560   15.8320    3.6050 O.2    97  LEU97      -0.2715
     78  CB        21.7840   16.2600    6.3330 C.3    97  LEU97       0.0311
     79  CG        21.9650   16.5610    7.8240 C.3    97  LEU97       0.0022
     80  CD1       22.9420   15.5620    8.4230 C.3    97  LEU97       0.0001
     81  CD2       22.4680   17.9990    8.0820 C.3    97  LEU97       0.0001
     82  N         21.4620   17.8440    3.2630 N.am   98  MET98      -0.1963
     83  CA        21.5600   17.7120    1.7940 C.3    98  MET98       0.1736
     84  C         23.0540   17.6890    1.4120 C.2    98  MET98       0.2616
     85  O         23.8630   18.3860    2.0270 O.2    98  MET98      -0.2715
     86  CB        20.8380   18.8430    1.0840 C.3    98  MET98       0.0427
     87  CG        19.3250   19.0430    1.4720 C.3    98  MET98       0.0599
     88  SD        18.3100   17.5750    1.1590 S.3    98  MET98      -0.1393
     89  CE        18.2470   17.5640   -0.6220 C.3    98  MET98       0.0692
     90  N         23.4170   16.8740    0.4230 N.am   99  ILE99      -0.1963
     91  CA        24.7930   16.7710   -0.0500 C.3    99  ILE99       0.1727
     92  C         24.9610   17.2970   -1.5140 C.2    99  ILE99       0.2616
     93  O         24.3150   16.7950   -2.4550 O.2    99  ILE99      -0.2715
     94  CB        25.3090   15.2870    0.0420 C.3    99  ILE99       0.0290
     95  CG1       25.0910   14.7090    1.4330 C.3    99  ILE99       0.0022
     96  CG2       26.8090   15.2460   -0.2910 C.3    99  ILE99       0.0023
     97  CD1       25.2860   13.1680    1.4710 C.3    99  ILE99       0.0001
     98  N         25.8120   18.3050   -1.6930 N.am  100  SER100     -0.1950
     99  CA        26.1620   18.8540   -3.0320 C.3   100  SER100      0.1924
    100  C         27.2680   17.9530   -3.5940 C.2   100  SER100      0.2314
    101  O         28.4220   18.0580   -3.1740 O.2   100  SER100     -0.2863
    102  CB        26.6750   20.3130   -2.9410 C.3   100  SER100      0.2116
    103  OG        27.0770   20.7530   -4.2390 O.3   100  SER100     -0.2180
@<TRIPOS>BOND
     1   103   102    1
     2    12    11    2
     3   100   101    2
     4   100    99    1
     5    11    10    1
     6     9    10    1
     7    99   102    1
     8    99    98    1
     9    10    13    1
    10    17    18    1
    11    93    92    2
    12    18    19    1
    13    18    21    1
    14    98    92   am
    15    92    91    1
    16    13    14    1
    17    19    20    2
    18    21    22    1
    19    89    88    1
    20    16    14    1
    21    23    22    2
    22    14    15    1
    23    96    94    1
    24    22    24   am
    25    91    94    1
    26    91    90    1
    27    94    95    1
    28    90    84   am
    29    86    87    1
    30    86    83    1
    31    88    87    1
    32    84    83    1
    33    84    85    2
    34    95    97    1
    35    83    82    1
    36    73    71   am
    37    72    71    2
    38    71    70    1
    39    82    76   am
    40    77    76    2
    41    25    26    1
    42    76    75    1
    43    70    69    1
    44    26    27    1
    45     7     8    1
    46     7     6    1
    47     4     3    2
    48    69    66    1
    49     3     2    1
    50     5     6    1
    51     5     2    1
    52    68    67    2
    53    75    74    1
    54    75    78    1
    55    67    74   am
    56    67    66    1
    57    27    29   am
    58    27    28    2
    59     2     1    1
    60    64    63    1
    61    66    65    1
    62    29    30    1
    63    78    79    1
    64    63    62   ar
    65    63    61   ar
    66    62    60   ar
    67    44    42    1
    68    32    31    2
    69    30    33    1
    70    30    31    1
    71    33    34    1
    72    61    59   ar
    73    79    81    1
    74    79    80    1
    75    31    37   am
    76    60    58   ar
    77    42    41    1
    78    59    58   ar
    79    37    38    1
    80    34    36    1
    81    34    35    1
    82    58    57    1
    83    52    50   ar
    84    38    41    1
    85    38    39    1
    86    41    43    1
    87    57    54    1
    88    50    51   ar
    89    50    49    1
    90    39    45   am
    91    39    40    2
    92    45    46    1
    93    54    55    1
    94    54    53    1
    95    49    46    1
    96    55    56    2
    97    46    47    1
    98    48    47    2
