@<TRIPOS>MOLECULE
tmp/2hrqD04.pdb
 154 144 0 0 0
SMALL
GASTEIGER

@<TRIPOS>ATOM
      1  N         57.2470  -27.7900  103.1120 N.3    77  LEU77      -0.1245
      2  CA        58.2700  -28.4330  103.9240 C.3    77  LEU77       0.1561
      3  C         59.5640  -28.5360  103.1320 C.2    77  LEU77       0.2260
      4  O         60.6530  -28.3750  103.6750 O.2    77  LEU77      -0.2867
      5  CB        57.8230  -29.8290  104.3430 C.3    77  LEU77       0.0270
      6  CG        58.8160  -30.5870  105.2190 C.3    77  LEU77       0.0019
      7  CD1       58.9080  -29.9270  106.5890 C.3    77  LEU77       0.0001
      8  CD2       58.3670  -32.0230  105.3640 C.3    77  LEU77       0.0001
      9  N         63.3140  -26.8690  104.0390 N.3    81  PHE81      -0.1241
     10  CA        64.3820  -27.8180  104.3330 C.3    81  PHE81       0.1605
     11  C         65.4860  -27.9230  103.2930 C.2    81  PHE81       0.2264
     12  O         66.6210  -28.2570  103.6270 O.2    81  PHE81      -0.2867
     13  CB        63.7940  -29.2180  104.5450 C.3    81  PHE81       0.0534
     14  CG        63.2240  -29.4510  105.9180 C.ar   81  PHE81      -0.0203
     15  CD1       63.2230  -28.4470  106.8770 C.ar   81  PHE81      -0.0042
     16  CD2       62.6950  -30.6910  106.2540 C.ar   81  PHE81      -0.0042
     17  CE1       62.7030  -28.6750  108.1520 C.ar   81  PHE81      -0.0003
     18  CE2       62.1740  -30.9300  107.5220 C.ar   81  PHE81      -0.0003
     19  CZ        62.1790  -29.9210  108.4720 C.ar   81  PHE81      -0.0000
     20  N         59.1430  -35.8570  107.3580 N.3   122  GLY122     -0.1210
     21  CA        57.8680  -35.3170  106.9300 C.3   122  GLY122      0.1956
     22  C         56.7500  -36.1520  107.5220 C.2   122  GLY122      0.2612
     23  O         55.7850  -36.4920  106.8320 O.2   122  GLY122     -0.2717
     24  N         56.9040  -36.4940  108.8000 N.am  123  GLY123     -0.1956
     25  CA        55.9140  -37.2830  109.5080 C.3   123  GLY123      0.1869
     26  C         55.4190  -38.4960  108.7500 C.2   123  GLY123      0.2309
     27  O         54.2690  -38.8890  108.8940 O.2   123  GLY123     -0.2863
     28  N         66.3670  -37.2960  109.6490 N.3   200  GLU200     -0.1231
     29  CA        65.8710  -36.4910  110.7480 C.3   200  GLU200      0.1699
     30  C         64.3440  -36.4820  110.7970 C.2   200  GLU200      0.2593
     31  O         63.6800  -36.5950  109.7680 O.2   200  GLU200     -0.2718
     32  CB        66.4460  -35.0760  110.6550 C.3   200  GLU200      0.0402
     33  CG        65.7580  -34.1640  109.6820 C.3   200  GLU200      0.1161
     34  CD        64.5550  -33.4850  110.2990 C.2   200  GLU200      0.3649
     35  OE1       64.7170  -32.9000  111.3940 O.co2 200  GLU200     -0.2457
     36  OE2       63.4600  -33.5340  109.6900 O.co2 200  GLU200     -0.2457
     37  N         63.8060  -36.3740  112.0090 N.am  201  SER201     -0.1938
     38  CA        62.3630  -36.3570  112.2490 C.3   201  SER201      0.2055
     39  C         61.7790  -37.7340  111.9400 C.2   201  SER201      0.2642
     40  O         62.1670  -38.7200  112.5620 O.2   201  SER201     -0.2714
     41  CB        61.6940  -35.2840  111.3880 C.3   201  SER201      0.2130
     42  OG        60.4970  -34.8410  112.0010 O.3   201  SER201     -0.2179
     43  N         60.8480  -37.8110  110.9910 N.am  202  ALA202     -0.1977
     44  CA        60.2690  -39.0990  110.6220 C.3   202  ALA202      0.1597
     45  C         61.4200  -39.9590  110.1140 C.2   202  ALA202      0.2287
     46  O         61.3680  -41.1840  110.1660 O.2   202  ALA202     -0.2864
     47  CB        59.2230  -38.9230  109.5310 C.3   202  ALA202      0.0319
     48  N         59.3490  -41.7590  119.7660 N.3   232  THR232     -0.1218
     49  CA        58.6180  -40.5360  119.4230 C.3   232  THR232      0.1862
     50  C         57.2170  -41.0390  119.0720 C.2   232  THR232      0.2287
     51  O         56.7870  -40.9940  117.9190 O.2   232  THR232     -0.2866
     52  CB        59.2480  -39.8130  118.1970 C.3   232  THR232      0.1770
     53  OG1       60.5580  -39.3380  118.5410 O.3   232  THR232     -0.2211
     54  CG2       58.3930  -38.6310  117.7670 C.3   232  THR232      0.0375
     55  N         54.2420  -40.3740  118.6220 N.3   234  VAL234     -0.1231
     56  CA        53.3230  -39.8860  117.6010 C.3   234  VAL234      0.1692
     57  C         53.4680  -40.6450  116.2680 C.2   234  VAL234      0.2591
     58  O         52.5140  -40.7470  115.4900 O.2   234  VAL234     -0.2718
     59  CB        53.5260  -38.3670  117.3460 C.3   234  VAL234      0.0266
     60  CG1       54.8880  -38.1130  116.7220 C.3   234  VAL234      0.0020
     61  CG2       52.4240  -37.8400  116.4400 C.3   234  VAL234      0.0020
     62  N         54.6590  -41.1830  116.0150 N.am  235  LEU235     -0.1980
     63  CA        54.9270  -41.9000  114.7760 C.3   235  LEU235      0.1596
     64  C         54.7790  -43.4060  114.9080 C.2   235  LEU235      0.2287
     65  O         54.8510  -44.1260  113.9070 O.2   235  LEU235     -0.2864
     66  CB        56.3360  -41.5720  114.2730 C.3   235  LEU235      0.0297
     67  CG        56.6280  -40.1380  113.8210 C.3   235  LEU235      0.0022
     68  CD1       58.1060  -40.0090  113.5020 C.3   235  LEU235      0.0001
     69  CD2       55.7980  -39.7860  112.6070 C.3   235  LEU235      0.0001
     70  N         48.3940  -34.3340  109.9790 N.3   284  LEU284     -0.1245
     71  CA        49.3670  -33.2770  110.2630 C.3   284  LEU284      0.1561
     72  C         48.7420  -31.9380  110.6470 C.2   284  LEU284      0.2260
     73  O         49.3290  -30.8800  110.4150 O.2   284  LEU284     -0.2867
     74  CB        50.2760  -33.0650  109.0510 C.3   284  LEU284      0.0270
     75  CG        51.0930  -34.2540  108.5440 C.3   284  LEU284      0.0019
     76  CD1       51.8900  -33.8060  107.3250 C.3   284  LEU284      0.0001
     77  CD2       52.0190  -34.7840  109.6430 C.3   284  LEU284      0.0001
     78  N         48.4410  -38.8500  111.9700 N.3   298  LEU298     -0.1245
     79  CA        48.9970  -39.4760  110.7720 C.3   298  LEU298      0.1561
     80  C         49.0160  -41.0050  110.8430 C.2   298  LEU298      0.2260
     81  O         48.7550  -41.6040  111.8850 O.2   298  LEU298     -0.2867
     82  CB        50.4210  -38.9600  110.5440 C.3   298  LEU298      0.0270
     83  CG        51.3860  -39.1580  111.7210 C.3   298  LEU298      0.0019
     84  CD1       51.9110  -40.5900  111.7360 C.3   298  LEU298      0.0001
     85  CD2       52.5400  -38.1790  111.6010 C.3   298  LEU298      0.0001
     86  N         58.8210  -24.0580  113.4700 N.3   338  LEU338     -0.1231
     87  CA        58.4240  -24.8550  112.3160 C.3   338  LEU338      0.1693
     88  C         57.2910  -25.8590  112.4970 C.2   338  LEU338      0.2591
     89  O         56.3480  -25.8650  111.7100 O.2   338  LEU338     -0.2718
     90  CB        59.6550  -25.5550  111.7300 C.3   338  LEU338      0.0284
     91  CG        59.4720  -26.2910  110.3990 C.3   338  LEU338      0.0019
     92  CD1       60.6770  -26.0520  109.5180 C.3   338  LEU338      0.0001
     93  CD2       59.2780  -27.7720  110.6500 C.3   338  LEU338      0.0001
     94  N         57.3690  -26.7090  113.5140 N.am  339  ILE339     -0.1980
     95  CA        56.3090  -27.6950  113.7080 C.3   339  ILE339      0.1595
     96  C         54.9620  -27.0610  114.0810 C.2   339  ILE339      0.2287
     97  O         53.9340  -27.4050  113.4940 O.2   339  ILE339     -0.2864
     98  CB        56.6980  -28.7570  114.7650 C.3   339  ILE339      0.0276
     99  CG1       57.9770  -29.4790  114.3320 C.3   339  ILE339      0.0022
    100  CG2       55.5750  -29.7730  114.9210 C.3   339  ILE339      0.0022
    101  CD1       58.4560  -30.5330  115.3220 C.3   339  ILE339      0.0001
    102  N         53.4630  -25.3480  111.1130 N.3   342  LEU342     -0.1231
    103  CA        52.9840  -26.3050  110.1260 C.3   342  LEU342      0.1693
    104  C         51.6640  -26.9470  110.5380 C.2   342  LEU342      0.2591
    105  O         50.7480  -27.0720  109.7240 O.2   342  LEU342     -0.2718
    106  CB        54.0270  -27.4000  109.8810 C.3   342  LEU342      0.0284
    107  CG        55.2300  -27.0490  108.9990 C.3   342  LEU342      0.0019
    108  CD1       56.0380  -28.3100  108.7300 C.3   342  LEU342      0.0001
    109  CD2       54.7610  -26.4450  107.6810 C.3   342  LEU342      0.0001
    110  N         51.5670  -27.3580  111.7970 N.am  343  MET343     -0.1979
    111  CA        50.3480  -27.9830  112.2920 C.3   343  MET343      0.1605
    112  C         49.2620  -26.9560  112.5750 C.2   343  MET343      0.2287
    113  O         48.1520  -27.3120  112.9700 O.2   343  MET343     -0.2864
    114  CB        50.6370  -28.7800  113.5600 C.3   343  MET343      0.0413
    115  CG        51.5920  -29.9200  113.3370 C.3   343  MET343      0.0598
    116  SD        51.5010  -31.0960  114.6700 S.3   343  MET343     -0.1393
    117  CE        50.1030  -32.1140  114.1180 C.3   343  MET343      0.0692
    118  N         50.0320  -35.7250  119.8700 N.3   367  LEU367     -0.1245
    119  CA        51.4300  -35.3200  119.7570 C.3   367  LEU367      0.1561
    120  C         52.2500  -35.6670  120.9870 C.2   367  LEU367      0.2260
    121  O         53.4010  -36.0780  120.8700 O.2   367  LEU367     -0.2867
    122  CB        51.5420  -33.8150  119.5130 C.3   367  LEU367      0.0270
    123  CG        51.1660  -33.2740  118.1340 C.3   367  LEU367      0.0019
    124  CD1       51.4050  -31.7740  118.0980 C.3   367  LEU367      0.0001
    125  CD2       52.0040  -33.9630  117.0700 C.3   367  LEU367      0.0001
    126  N         58.2180  -34.9530  122.9700 N.3   404  MET404     -0.1230
    127  CA        58.3310  -35.5030  121.6280 C.3   404  MET404      0.1702
    128  C         59.7160  -35.9570  121.1900 C.2   404  MET404      0.2592
    129  O         59.8380  -37.0030  120.5560 O.2   404  MET404     -0.2718
    130  CB        57.8060  -34.5000  120.6070 C.3   404  MET404      0.0401
    131  CG        56.3030  -34.3580  120.6020 C.3   404  MET404      0.0596
    132  SD        55.7710  -33.2560  119.2800 S.3   404  MET404     -0.1393
    133  CE        56.0940  -34.2660  117.8260 C.3   404  MET404      0.0692
    134  N         60.7520  -35.1830  121.5130 N.am  405  PHE405     -0.1976
    135  CA        62.1140  -35.5310  121.0990 C.3   405  PHE405      0.1639
    136  C         63.1340  -35.6210  122.2310 C.2   405  PHE405      0.2290
    137  O         63.8340  -36.6260  122.3770 O.2   405  PHE405     -0.2864
    138  CB        62.6330  -34.5160  120.0740 C.3   405  PHE405      0.0560
    139  CG        61.6320  -34.1450  119.0210 C.ar  405  PHE405     -0.0200
    140  CD1       60.6800  -33.1620  119.2660 C.ar  405  PHE405     -0.0042
    141  CD2       61.6290  -34.7860  117.7890 C.ar  405  PHE405     -0.0042
    142  CE1       59.7360  -32.8220  118.2950 C.ar  405  PHE405     -0.0003
    143  CE2       60.6880  -34.4540  116.8120 C.ar  405  PHE405     -0.0003
    144  CZ        59.7410  -33.4700  117.0680 C.ar  405  PHE405     -0.0000
    145  N         63.4720  -26.9990  114.8570 N.3   447  HIS447     -0.1241
    146  CA        63.4320  -28.2780  114.1640 C.3   447  HIS447      0.1621
    147  C         64.0010  -28.1000  112.7510 C.2   447  HIS447      0.2264
    148  O         63.6140  -27.1800  112.0250 O.2   447  HIS447     -0.2867
    149  CB        61.9910  -28.7880  114.0940 C.3   447  HIS447      0.0745
    150  CG        61.8780  -30.2500  113.7930 C.ar  447  HIS447      0.0817
    151  ND1       62.3210  -31.2260  114.6610 N.ar  447  HIS447     -0.2268
    152  CD2       61.3640  -30.9030  112.7230 C.ar  447  HIS447      0.1154
    153  CE1       62.0830  -32.4160  114.1400 C.ar  447  HIS447      0.1986
    154  NE2       61.5030  -32.2460  112.9650 N.ar  447  HIS447     -0.2212
@<TRIPOS>BOND
     1     1     2    1
     2     3     4    2
     3     3     2    1
     4    11    12    2
     5    11    10    1
     6     2     5    1
     7     9    10    1
     8    10    13    1
     9     5     6    1
    10    13    14    1
    11     6     8    1
    12     6     7    1
    13    14    16   ar
    14    14    15   ar
    15    16    18   ar
    16    23    22    2
    17    15    17   ar
    18    21    20    1
    19    21    22    1
    20    76    75    1
    21    18    19   ar
    22    22    24   am
    23   109   107    1
    24    17    19   ar
    25    75    74    1
    26    75    77    1
    27   108   107    1
    28    26    27    2
    29    26    25    1
    30    24    25    1
    31   107   106    1
    32    74    71    1
    33    92    91    1
    34    47    44    1
    35    28    29    1
    36    33    34    1
    37    33    32    1
    38    36    34   ar
    39   105   104    2
    40    31    30    2
    41   106   103    1
    42    70    71    1
    43    45    46    2
    44    45    44    1
    45   103   104    1
    46   103   102    1
    47    71    72    1
    48    34    35   ar
    49    91    93    1
    50    91    90    1
    51    73    72    2
    52   104   110   am
    53    82    79    1
    54    82    83    1
    55    44    43    1
    56    32    29    1
    57    29    30    1
    58    79    80    1
    59    79    78    1
    60    30    37   am
    61    80    81    2
    62    43    39   am
    63    41    42    1
    64    41    38    1
    65    85    83    1
    66    89    88    2
    67    83    84    1
    68    90    87    1
    69   110   111    1
    70    39    38    1
    71    39    40    2
    72    37    38    1
    73   148   147    2
    74   111   112    1
    75   111   114    1
    76    87    88    1
    77    87    86    1
    78    88    94   am
    79   112   113    2
    80    69    67    1
    81   152   154   ar
    82   152   150   ar
    83   147   146    1
    84   154   153   ar
    85   115   114    1
    86   115   116    1
    87    97    96    2
    88    68    67    1
    89    94    95    1
    90    95    96    1
    91    95    98    1
    92   150   149    1
    93   150   151   ar
    94    67    66    1
    95    65    64    2
    96   149   146    1
    97   117   116    1
    98   153   151   ar
    99   146   145    1
   100    66    63    1
   101    99    98    1
   102    99   101    1
   103    98   100    1
   104    63    64    1
   105    63    62    1
   106    58    57    2
   107    62    57   am
   108    57    56    1
   109    61    59    1
   110    60    59    1
   111   143   144   ar
   112   143   141   ar
   113   144   142   ar
   114   125   123    1
   115    59    56    1
   116    56    55    1
   117    54    52    1
   118   141   139   ar
   119   133   132    1
   120    51    50    2
   121   124   123    1
   122   123   122    1
   123    52    53    1
   124    52    49    1
   125   142   140   ar
   126   139   140   ar
   127   139   138    1
   128    50    49    1
   129   132   131    1
   130    49    48    1
   131   122   119    1
   132   119   118    1
   133   119   120    1
   134   138   135    1
   135   129   128    2
   136   131   130    1
   137   130   127    1
   138   121   120    2
   139   135   134    1
   140   135   136    1
   141   128   134   am
   142   128   127    1
   143   127   126    1
   144   136   137    2
