@<TRIPOS>MOLECULE
tmp/2hrqD03.pdb
 111 107 0 0 0
SMALL
GASTEIGER

@<TRIPOS>ATOM
      1  N         60.1720  -24.9930  118.5720 N.3   336  GLY336     -0.1210
      2  CA        60.3010  -23.5510  118.5540 C.3   336  GLY336      0.1956
      3  C         59.4190  -22.7960  117.5830 C.2   336  GLY336      0.2611
      4  O         58.8200  -21.7900  117.9550 O.2   336  GLY336     -0.2717
      5  N         59.3230  -23.2660  116.3440 N.am  337  TRP337     -0.1976
      6  CA        58.5190  -22.5640  115.3560 C.3   337  TRP337      0.1640
      7  C         57.9400  -23.4130  114.2280 C.2   337  TRP337      0.2290
      8  O         56.7230  -23.4710  114.0440 O.2   337  TRP337     -0.2864
      9  CB        59.3480  -21.4420  114.7330 C.3   337  TRP337      0.0576
     10  CG        58.6310  -20.7190  113.6230 C.ar  337  TRP337      0.0006
     11  CD1       57.6660  -19.7570  113.7550 C.ar  337  TRP337      0.0946
     12  CD2       58.7830  -20.9410  112.2130 C.ar  337  TRP337      0.0152
     13  NE1       57.2110  -19.3670  112.5180 N.ar  337  TRP337     -0.2442
     14  CE2       57.8760  -20.0760  111.5540 C.ar  337  TRP337      0.0810
     15  CE3       59.5950  -21.7880  111.4430 C.ar  337  TRP337      0.0012
     16  CZ2       57.7570  -20.0340  110.1620 C.ar  337  TRP337      0.0191
     17  CZ3       59.4770  -21.7460  110.0590 C.ar  337  TRP337      0.0001
     18  CH2       58.5620  -20.8730  109.4330 C.ar  337  TRP337      0.0015
     19  N         54.9430  -26.1340  115.0590 N.3   340  PRO340     -0.2102
     20  CA        53.6730  -25.5020  115.4400 C.3   340  PRO340      0.1504
     21  C         53.0430  -24.7760  114.2560 C.2   340  PRO340      0.2575
     22  O         51.8460  -24.9000  114.0020 O.2   340  PRO340     -0.2718
     23  CB        54.0860  -24.5350  116.5450 C.3   340  PRO340      0.0282
     24  CG        55.2360  -25.2300  117.1740 C.3   340  PRO340      0.0208
     25  CD        56.0170  -25.7320  115.9820 C.3   340  PRO340      0.0893
     26  N         53.8670  -24.0220  113.5370 N.am  341  MET341     -0.1980
     27  CA        53.4150  -23.2700  112.3750 C.3   341  MET341      0.1605
     28  C         52.8300  -24.1970  111.3110 C.2   341  MET341      0.2287
     29  O         51.8210  -23.8750  110.6810 O.2   341  MET341     -0.2864
     30  CB        54.5850  -22.4600  111.8010 C.3   341  MET341      0.0413
     31  CG        54.3130  -21.7620  110.4740 C.3   341  MET341      0.0598
     32  SD        54.3260  -22.8890  109.0520 S.3   341  MET341     -0.1393
     33  CE        56.0740  -23.3260  108.9860 C.3   341  MET341      0.0692
     34  N         49.1780  -24.1880  114.9190 N.3   345  TYR345     -0.1241
     35  CA        48.9050  -24.1300  116.3430 C.3   345  TYR345      0.1605
     36  C         48.2750  -22.8000  116.7190 C.2   345  TYR345      0.2264
     37  O         48.6090  -21.7600  116.1490 O.2   345  TYR345     -0.2867
     38  CB        50.1880  -24.3290  117.1380 C.3   345  TYR345      0.0534
     39  CG        50.2000  -25.6190  117.9000 C.ar  345  TYR345     -0.0201
     40  CD1       50.1850  -26.8370  117.2320 C.ar  345  TYR345     -0.0009
     41  CD2       50.1980  -25.6270  119.2920 C.ar  345  TYR345     -0.0009
     42  CE1       50.1640  -28.0330  117.9270 C.ar  345  TYR345      0.0417
     43  CE2       50.1770  -26.8190  120.0010 C.ar  345  TYR345      0.0417
     44  CZ        50.1580  -28.0190  119.3100 C.ar  345  TYR345      0.1957
     45  OH        50.1160  -29.2080  119.9960 O.3   345  TYR345     -0.2866
     46  N         48.6250  -20.2850  118.6180 N.3   347  LEU347     -0.1231
     47  CA        49.5010  -19.4660  119.4440 C.3   347  LEU347      0.1693
     48  C         49.6390  -18.0930  118.7950 C.2   347  LEU347      0.2593
     49  O         50.6590  -17.4250  118.9330 O.2   347  LEU347     -0.2718
     50  CB        50.8790  -20.1250  119.5820 C.3   347  LEU347      0.0284
     51  CG        50.9520  -21.4890  120.2730 C.3   347  LEU347      0.0019
     52  CD1       52.3960  -21.9530  120.3180 C.3   347  LEU347      0.0001
     53  CD2       50.3880  -21.3910  121.6750 C.3   347  LEU347      0.0001
     54  N         48.5900  -17.6720  118.1000 N.am  348  SER348     -0.1938
     55  CA        48.5900  -16.3950  117.4040 C.3   348  SER348      0.2055
     56  C         48.6910  -15.1530  118.2950 C.2   348  SER348      0.2643
     57  O         48.7110  -14.0300  117.7910 O.2   348  SER348     -0.2714
     58  CB        47.3420  -16.2960  116.5270 C.3   348  SER348      0.2130
     59  OG        47.4200  -15.1700  115.6710 O.3   348  SER348     -0.2179
     60  N         48.7640  -15.3430  119.6100 N.am  349  GLU349     -0.1963
     61  CA        48.8640  -14.2080  120.5300 C.3   349  GLU349      0.1733
     62  C         50.2420  -14.0450  121.1720 C.2   349  GLU349      0.2616
     63  O         50.5710  -12.9690  121.6830 O.2   349  GLU349     -0.2715
     64  CB        47.8130  -14.3190  121.6400 C.3   349  GLU349      0.0429
     65  CG        46.3750  -14.1990  121.1630 C.3   349  GLU349      0.1163
     66  CD        45.3860  -14.1620  122.3120 C.2   349  GLU349      0.3649
     67  OE1       45.3890  -15.1050  123.1330 O.co2 349  GLU349     -0.2457
     68  OE2       44.6060  -13.1890  122.3930 O.co2 349  GLU349     -0.2457
     69  N         51.0420  -15.1070  121.1500 N.am  350  GLY350     -0.1955
     70  CA        52.3650  -15.0470  121.7480 C.3   350  GLY350      0.1869
     71  C         52.2650  -15.0980  123.2590 C.2   350  GLY350      0.2309
     72  O         53.2710  -15.0900  123.9690 O.2   350  GLY350     -0.2863
     73  N         54.2230  -19.2250  127.4730 N.3   393  LYS393     -0.1245
     74  CA        54.0770  -19.7120  126.1090 C.3   393  LYS393      0.1561
     75  C         55.3510  -20.4000  125.6280 C.2   393  LYS393      0.2260
     76  O         55.2870  -21.3300  124.8270 O.2   393  LYS393     -0.2867
     77  CB        53.7190  -18.5570  125.1670 C.3   393  LYS393      0.0271
     78  CG        53.6010  -18.9480  123.6920 C.3   393  LYS393      0.0035
     79  CD        54.9410  -18.8910  122.9570 C.3   393  LYS393      0.0206
     80  CE        55.4460  -17.4550  122.8280 C.3   393  LYS393      0.1093
     81  NZ        56.7250  -17.3490  122.0700 N.3   393  LYS393     -0.1314
     82  N         56.4100  -24.6060  124.8920 N.3   397  LEU397     -0.1245
     83  CA        57.0830  -25.1320  123.7150 C.3   397  LEU397      0.1561
     84  C         58.1840  -26.0990  124.1450 C.2   397  LEU397      0.2260
     85  O         58.4040  -27.1170  123.4920 O.2   397  LEU397     -0.2867
     86  CB        57.6690  -23.9940  122.8820 C.3   397  LEU397      0.0270
     87  CG        56.6620  -22.9410  122.4000 C.3   397  LEU397      0.0019
     88  CD1       57.3780  -21.9430  121.5120 C.3   397  LEU397      0.0001
     89  CD2       55.5180  -23.5890  121.6420 C.3   397  LEU397      0.0001
     90  N         59.3790  -15.4780  108.4830 N.3   438  MET438     -0.1245
     91  CA        58.2330  -15.5050  109.3880 C.3   438  MET438      0.1570
     92  C         58.5550  -16.1820  110.7130 C.2   438  MET438      0.2261
     93  O         57.6720  -16.4080  111.5360 O.2   438  MET438     -0.2867
     94  CB        57.0720  -16.2190  108.6990 C.3   438  MET438      0.0387
     95  CG        56.7190  -15.5930  107.3570 C.3   438  MET438      0.0595
     96  SD        55.6220  -16.5950  106.3390 S.3   438  MET438     -0.1393
     97  CE        56.8260  -17.7200  105.5340 C.3   438  MET438      0.0692
     98  N         60.3060  -16.1820  114.3790 N.3   440  PRO440     -0.2116
     99  CA        60.7830  -15.2830  115.4330 C.3   440  PRO440      0.1372
    100  C         62.2900  -15.3770  115.6300 C.2   440  PRO440      0.2244
    101  O         62.8400  -16.4620  115.8060 O.2   440  PRO440     -0.2868
    102  CB        59.9890  -15.7320  116.6650 C.3   440  PRO440      0.0268
    103  CG        59.5620  -17.1300  116.3380 C.3   440  PRO440      0.0207
    104  CD        59.2180  -17.0340  114.8830 C.3   440  PRO440      0.0892
    105  N         64.1080  -17.6170  118.2510 N.3   443  VAL443     -0.1245
    106  CA        64.2100  -19.0660  118.1160 C.3   443  VAL443      0.1561
    107  C         65.5980  -19.5080  117.6490 C.2   443  VAL443      0.2260
    108  O         66.0740  -19.0900  116.5950 O.2   443  VAL443     -0.2867
    109  CB        63.1300  -19.5940  117.1420 C.3   443  VAL443      0.0252
    110  CG1       63.2530  -21.0970  116.9730 C.3   443  VAL443      0.0019
    111  CG2       61.7550  -19.2500  117.6820 C.3   443  VAL443      0.0019
@<TRIPOS>BOND
     1    97    96    1
     2    96    95    1
     3    95    94    1
     4    90    91    1
     5    94    91    1
     6    33    32    1
     7    32    31    1
     8    91    92    1
     9    18    17   ar
    10    18    16   ar
    11    17    15   ar
    12    16    14   ar
    13    31    30    1
    14    29    28    2
    15    92    93    2
    16    28    27    1
    17    15    12   ar
    18    14    12   ar
    19    14    13   ar
    20    30    27    1
    21    12    10   ar
    22    27    26    1
    23    13    11   ar
    24    26    21   am
    25    10    11   ar
    26    10     9    1
    27    22    21    2
    28     8     7    2
    29     7     6    1
    30    21    20    1
    31    98   104    1
    32    98    99    1
    33     9     6    1
    34   104   103    1
    35    34    35    1
    36    19    20    1
    37    19    25    1
    38     6     5    1
    39    99   100    1
    40    99   102    1
    41    20    23    1
    42   100   101    2
    43    59    58    1
    44    25    24    1
    45    37    36    2
    46   103   102    1
    47    35    36    1
    48    35    38    1
    49     5     3   am
    50    58    55    1
    51    23    24    1
    52   108   107    2
    53   110   109    1
    54    38    39    1
    55   109   111    1
    56   109   106    1
    57    40    39   ar
    58    40    42   ar
    59    55    54    1
    60    55    56    1
    61     3     4    2
    62     3     2    1
    63   107   106    1
    64    57    56    2
    65    39    41   ar
    66    42    44   ar
    67    54    48   am
    68   106   105    1
    69    56    60   am
    70     2     1    1
    71    46    47    1
    72    48    49    2
    73    48    47    1
    74    41    43   ar
    75    44    45    1
    76    44    43   ar
    77    47    50    1
    78    50    51    1
    79    60    61    1
    80    51    52    1
    81    51    53    1
    82    61    62    1
    83    61    64    1
    84    69    62   am
    85    69    70    1
    86    65    64    1
    87    65    66    1
    88    62    63    2
    89    88    87    1
    90    89    87    1
    91    70    71    1
    92    81    80    1
    93    66    68   ar
    94    66    67   ar
    95    87    86    1
    96    80    79    1
    97    86    83    1
    98    79    78    1
    99    71    72    2
   100    85    84    2
   101    78    77    1
   102    83    84    1
   103    83    82    1
   104    76    75    2
   105    77    74    1
   106    75    74    1
   107    74    73    1
