@<TRIPOS>MOLECULE
tmp/2hrrA04.pdb
 134 126 0 0 0
SMALL
GASTEIGER

@<TRIPOS>ATOM
      1  N        -29.7190  -47.7530   51.9240 N.3    77  LEU77      -0.1245
      2  CA       -30.7570  -47.1070   52.7190 C.3    77  LEU77       0.1561
      3  C        -32.0630  -47.0150   51.9350 C.2    77  LEU77       0.2260
      4  O        -33.1490  -47.1520   52.4950 O.2    77  LEU77      -0.2867
      5  CB       -30.3150  -45.7040   53.1400 C.3    77  LEU77       0.0270
      6  CG       -31.2630  -44.9390   54.0660 C.3    77  LEU77       0.0019
      7  CD1      -31.3180  -45.6380   55.4120 C.3    77  LEU77       0.0001
      8  CD2      -30.7820  -43.4980   54.2350 C.3    77  LEU77       0.0001
      9  N        -35.7490  -48.5310   53.0080 N.3    81  PHE81      -0.1241
     10  CA       -36.8250  -47.5970   53.3380 C.3    81  PHE81       0.1605
     11  C        -37.9100  -47.4770   52.2860 C.2    81  PHE81       0.2264
     12  O        -38.9930  -46.9600   52.5670 O.2    81  PHE81      -0.2867
     13  CB       -36.2610  -46.2020   53.6070 C.3    81  PHE81       0.0534
     14  CG       -35.6690  -46.0360   54.9700 C.ar   81  PHE81      -0.0203
     15  CD1      -35.6590  -47.0880   55.8740 C.ar   81  PHE81      -0.0042
     16  CD2      -35.1340  -44.8140   55.3550 C.ar   81  PHE81      -0.0042
     17  CE1      -35.1250  -46.9260   57.1400 C.ar   81  PHE81      -0.0003
     18  CE2      -34.5990  -44.6390   56.6180 C.ar   81  PHE81      -0.0003
     19  CZ       -34.5930  -45.6960   57.5160 C.ar   81  PHE81      -0.0000
     20  N        -34.9790  -38.8780   55.4920 N.3   121  GLY121     -0.1210
     21  CA       -33.8920  -38.9000   56.4510 C.3   121  GLY121      0.1956
     22  C        -32.6410  -39.4610   55.7990 C.2   121  GLY121      0.2612
     23  O        -32.5930  -39.6540   54.5790 O.2   121  GLY121     -0.2717
     24  N        -31.6270  -39.7360   56.6120 N.am  122  GLY122     -0.1942
     25  CA       -30.3830  -40.2610   56.0830 C.3   122  GLY122      0.2014
     26  C        -29.2070  -39.4900   56.6560 C.2   122  GLY122      0.2639
     27  O        -28.1810  -39.3130   55.9950 O.2   122  GLY122     -0.2714
     28  N        -29.3730  -39.0220   57.8900 N.am  123  GLY123     -0.1954
     29  CA       -28.3300  -38.2790   58.5700 C.3   123  GLY123      0.1869
     30  C        -27.8290  -37.0420   57.8510 C.2   123  GLY123      0.2309
     31  O        -26.6880  -36.6370   58.0500 O.2   123  GLY123     -0.2863
     32  N        -38.7640  -38.2840   58.7430 N.3   200  GLU200     -0.1231
     33  CA       -38.2680  -39.1050   59.8240 C.3   200  GLU200      0.1699
     34  C        -36.7530  -39.0680   59.9200 C.2   200  GLU200      0.2593
     35  O        -36.0560  -38.8740   58.9250 O.2   200  GLU200     -0.2718
     36  CB       -38.7890  -40.5360   59.6780 C.3   200  GLU200      0.0402
     37  CG       -38.1290  -41.3510   58.6150 C.3   200  GLU200      0.1161
     38  CD       -36.9250  -42.0800   59.1470 C.2   200  GLU200      0.3649
     39  OE1      -37.0500  -42.6760   60.2430 O.co2 200  GLU200     -0.2457
     40  OE2      -35.8710  -42.0610   58.4700 O.co2 200  GLU200     -0.2457
     41  N        -36.2560  -39.2360   61.1400 N.am  201  SER201     -0.1938
     42  CA       -34.8260  -39.2090   61.4120 C.3   201  SER201      0.2055
     43  C        -34.2980  -37.8070   61.0820 C.2   201  SER201      0.2642
     44  O        -34.7400  -36.8250   61.6770 O.2   201  SER201     -0.2714
     45  CB       -34.1120  -40.2780   60.5790 C.3   201  SER201      0.2130
     46  OG       -32.9290  -40.7100   61.2260 O.3   201  SER201     -0.2179
     47  N        -33.3620  -37.7120   60.1430 N.am  202  ALA202     -0.1977
     48  CA       -32.8130  -36.4140   59.7530 C.3   202  ALA202      0.1597
     49  C        -33.9650  -35.5630   59.2260 C.2   202  ALA202      0.2287
     50  O        -33.9470  -34.3390   59.3340 O.2   202  ALA202     -0.2864
     51  CB       -31.7450  -36.5900   58.6740 C.3   202  ALA202      0.0319
     52  N        -31.8390  -33.9900   68.9540 N.3   232  THR232     -0.1218
     53  CA       -31.1030  -35.2050   68.5950 C.3   232  THR232      0.1862
     54  C        -29.7280  -34.6500   68.2140 C.2   232  THR232      0.2287
     55  O        -29.3650  -34.5870   67.0400 O.2   232  THR232     -0.2866
     56  CB       -31.7470  -35.9300   67.3730 C.3   232  THR232      0.1770
     57  OG1      -33.0970  -36.3020   67.6840 O.3   232  THR232     -0.2211
     58  CG2      -30.9680  -37.1870   67.0190 C.3   232  THR232      0.0375
     59  N        -26.7290  -35.3470   67.7100 N.3   234  VAL234     -0.1231
     60  CA       -25.8060  -35.8630   66.7040 C.3   234  VAL234      0.1692
     61  C        -25.8450  -35.0300   65.4100 C.2   234  VAL234      0.2591
     62  O        -24.8410  -34.9090   64.7060 O.2   234  VAL234     -0.2718
     63  CB       -26.1200  -37.3590   66.3760 C.3   234  VAL234      0.0266
     64  CG1      -27.4440  -37.4700   65.6410 C.3   234  VAL234      0.0020
     65  CG2      -24.9980  -37.9690   65.5520 C.3   234  VAL234      0.0020
     66  N        -26.9990  -34.4390   65.1170 N.am  235  LEU235     -0.1980
     67  CA       -27.1740  -33.6480   63.9090 C.3   235  LEU235      0.1596
     68  C        -26.9970  -32.1440   64.0880 C.2   235  LEU235      0.2287
     69  O        -26.9400  -31.4080   63.1040 O.2   235  LEU235     -0.2864
     70  CB       -28.5550  -33.9220   63.3150 C.3   235  LEU235      0.0297
     71  CG       -28.8690  -35.3720   62.9430 C.3   235  LEU235      0.0022
     72  CD1      -30.3010  -35.4610   62.4580 C.3   235  LEU235      0.0001
     73  CD2      -27.9220  -35.8580   61.8730 C.3   235  LEU235      0.0001
     74  N        -31.3150  -51.6430   62.4250 N.3   338  LEU338     -0.1231
     75  CA       -30.9290  -50.8440   61.2830 C.3   338  LEU338      0.1693
     76  C        -29.7580  -49.8990   61.4350 C.2   338  LEU338      0.2591
     77  O        -28.8370  -49.9130   60.6160 O.2   338  LEU338     -0.2718
     78  CB       -32.1300  -50.0510   60.8070 C.3   338  LEU338      0.0284
     79  CG       -31.9180  -49.0400   59.6680 C.3   338  LEU338      0.0019
     80  CD1      -31.5020  -49.7580   58.3940 C.3   338  LEU338      0.0001
     81  CD2      -33.1830  -48.2410   59.4010 C.3   338  LEU338      0.0001
     82  N        -29.8040  -49.0410   62.4450 N.am  339  ILE339     -0.1980
     83  CA       -28.7250  -48.0900   62.6320 C.3   339  ILE339      0.1595
     84  C        -27.4110  -48.7840   62.9920 C.2   339  ILE339      0.2287
     85  O        -26.3950  -48.5520   62.3410 O.2   339  ILE339     -0.2864
     86  CB       -29.0890  -47.0320   63.6910 C.3   339  ILE339      0.0276
     87  CG1      -30.3520  -46.2830   63.2610 C.3   339  ILE339      0.0022
     88  CG2      -27.9470  -46.0440   63.8450 C.3   339  ILE339      0.0022
     89  CD1      -30.7540  -45.1690   64.2030 C.3   339  ILE339      0.0001
     90  N        -26.0110  -50.5070   60.0140 N.3   342  LEU342     -0.1245
     91  CA       -25.4830  -49.5460   59.0570 C.3   342  LEU342      0.1561
     92  C        -24.1320  -48.9860   59.4860 C.2   342  LEU342      0.2260
     93  O        -23.2230  -48.8480   58.6690 O.2   342  LEU342     -0.2867
     94  CB       -26.4780  -48.4000   58.8530 C.3   342  LEU342      0.0270
     95  CG       -27.7330  -48.7280   58.0400 C.3   342  LEU342      0.0019
     96  CD1      -28.5140  -47.4530   57.7630 C.3   342  LEU342      0.0001
     97  CD2      -27.3340  -49.3850   56.7300 C.3   342  LEU342      0.0001
     98  N        -22.5260  -40.0190   68.5400 N.3   367  LEU367     -0.1245
     99  CA       -23.9420  -40.3610   68.4550 C.3   367  LEU367      0.1561
    100  C        -24.7330  -39.9080   69.6740 C.2   367  LEU367      0.2260
    101  O        -25.8100  -39.3310   69.5390 O.2   367  LEU367     -0.2867
    102  CB       -24.1230  -41.8720   68.3010 C.3   367  LEU367      0.0270
    103  CG       -23.6350  -42.5810   67.0370 C.3   367  LEU367      0.0019
    104  CD1      -23.8540  -44.0800   67.1820 C.3   367  LEU367      0.0001
    105  CD2      -24.3780  -42.0510   65.8320 C.3   367  LEU367      0.0001
    106  N        -30.4880  -40.7070   71.9460 N.3   404  MET404     -0.1230
    107  CA       -30.6260  -40.1350   70.6140 C.3   404  MET404      0.1702
    108  C        -32.0280  -39.6520   70.2480 C.2   404  MET404      0.2592
    109  O        -32.1830  -38.5300   69.7740 O.2   404  MET404     -0.2718
    110  CB       -30.1860  -41.1450   69.5570 C.3   404  MET404      0.0401
    111  CG       -28.6930  -41.4160   69.5050 C.3   404  MET404      0.0596
    112  SD       -28.3160  -42.5500   68.1490 S.3   404  MET404     -0.1393
    113  CE       -28.5430  -41.4780   66.6990 C.3   404  MET404      0.0692
    114  N        -33.0430  -40.4910   70.4600 N.am  405  PHE405     -0.1976
    115  CA       -34.4160  -40.1380   70.0930 C.3   405  PHE405      0.1639
    116  C        -35.4110  -40.0120   71.2470 C.2   405  PHE405      0.2290
    117  O        -36.0080  -38.9520   71.4590 O.2   405  PHE405     -0.2864
    118  CB       -34.9700  -41.1600   69.0980 C.3   405  PHE405      0.0560
    119  CG       -33.9910  -41.5750   68.0370 C.ar  405  PHE405     -0.0200
    120  CD1      -33.0050  -42.5180   68.3100 C.ar  405  PHE405     -0.0042
    121  CD2      -34.0480  -41.0270   66.7670 C.ar  405  PHE405     -0.0042
    122  CE1      -32.0870  -42.9100   67.3280 C.ar  405  PHE405     -0.0003
    123  CE2      -33.1330  -41.4110   65.7750 C.ar  405  PHE405     -0.0003
    124  CZ       -32.1520  -42.3560   66.0600 C.ar  405  PHE405     -0.0000
    125  N        -35.8610  -48.6800   63.9120 N.3   447  HIS447     -0.1241
    126  CA       -35.8290  -47.3820   63.2690 C.3   447  HIS447      0.1621
    127  C        -36.4070  -47.5220   61.8550 C.2   447  HIS447      0.2264
    128  O        -36.0850  -48.4670   61.1240 O.2   447  HIS447     -0.2867
    129  CB       -34.3930  -46.8690   63.1940 C.3   447  HIS447      0.0745
    130  CG       -34.2840  -45.4480   62.7420 C.ar  447  HIS447      0.0817
    131  ND1      -34.6990  -44.3870   63.5180 N.ar  447  HIS447     -0.2268
    132  CD2      -33.7940  -44.9100   61.5990 C.ar  447  HIS447      0.1154
    133  CE1      -34.4660  -43.2570   62.8760 C.ar  447  HIS447      0.1986
    134  NE2      -33.9170  -43.5470   61.7080 N.ar  447  HIS447     -0.2212
@<TRIPOS>BOND
     1     1     2    1
     2     3     4    2
     3     3     2    1
     4    11    12    2
     5    11    10    1
     6     2     5    1
     7     9    10    1
     8     5     6    1
     9    10    13    1
    10    13    14    1
    11     6     8    1
    12     6     7    1
    13    23    22    2
    14    14    16   ar
    15    14    15   ar
    16    16    18   ar
    17    20    21    1
    18    22    21    1
    19    22    24   am
    20    15    17   ar
    21    27    26    2
    22    25    24    1
    23    25    26    1
    24    18    19   ar
    25    26    28   am
    26    97    95    1
    27    17    19   ar
    28    96    95    1
    29    30    31    2
    30    30    29    1
    31    28    29    1
    32    95    94    1
    33    80    79    1
    34    40    38   ar
    35    37    38    1
    36    37    36    1
    37    93    92    2
    38    51    48    1
    39    32    33    1
    40    94    91    1
    41    35    34    2
    42    91    92    1
    43    91    90    1
    44    38    39   ar
    45    49    50    2
    46    49    48    1
    47    81    79    1
    48    79    78    1
    49    36    33    1
    50    48    47    1
    51    33    34    1
    52    34    41   am
    53    47    43   am
    54    45    46    1
    55    45    42    1
    56    77    76    2
    57    78    75    1
    58    43    42    1
    59    43    44    2
    60   128   127    2
    61    41    42    1
    62    75    76    1
    63    75    74    1
    64    76    82   am
    65   132   134   ar
    66   132   130   ar
    67   134   133   ar
    68   127   126    1
    69    73    71    1
    70    85    84    2
    71    82    83    1
    72    72    71    1
    73    83    84    1
    74    83    86    1
    75   130   129    1
    76   130   131   ar
    77   133   131   ar
    78    71    70    1
    79    69    68    2
    80   129   126    1
    81    87    86    1
    82    87    89    1
    83   126   125    1
    84    70    67    1
    85    86    88    1
    86    67    68    1
    87    67    66    1
    88    62    61    2
    89    66    61   am
    90    61    60    1
    91    65    63    1
    92    64    63    1
    93   123   124   ar
    94   123   121   ar
    95   105   103    1
    96   124   122   ar
    97    63    60    1
    98   113   112    1
    99    60    59    1
   100   121   119   ar
   101    58    56    1
   102   103   104    1
   103   103   102    1
   104    55    54    2
   105   122   120   ar
   106    56    57    1
   107    56    53    1
   108   119   120   ar
   109   119   118    1
   110   112   111    1
   111    54    53    1
   112   102    99    1
   113    99    98    1
   114    99   100    1
   115    53    52    1
   116   118   115    1
   117   111   110    1
   118   101   100    2
   119   110   107    1
   120   109   108    2
   121   115   114    1
   122   115   116    1
   123   108   114   am
   124   108   107    1
   125   107   106    1
   126   116   117    2
