@<TRIPOS>MOLECULE
tmp/2hruA00.pdb
 184 170 0 0 0
SMALL
GASTEIGER

@<TRIPOS>ATOM
      1  N         17.6780  -29.3580  127.8480 N.3    31  HIS31      -0.1226
      2  CA        18.8360  -30.2570  127.8690 C.3    31  HIS31       0.1752
      3  C         20.1590  -29.6640  127.3520 C.2    31  HIS31       0.2596
      4  O         21.1890  -29.7510  128.0150 O.2    31  HIS31      -0.2718
      5  CB        18.5650  -31.5350  127.0700 C.3    31  HIS31       0.0759
      6  CG        19.7480  -32.4540  127.0080 C.ar   31  HIS31       0.0818
      7  ND1       20.0890  -33.3020  128.0400 N.ar   31  HIS31      -0.2268
      8  CD2       20.7160  -32.5960  126.0710 C.ar   31  HIS31       0.1154
      9  CE1       21.2140  -33.9250  127.7440 C.ar   31  HIS31       0.1986
     10  NE2       21.6170  -33.5140  126.5560 N.ar   31  HIS31      -0.2212
     11  N         20.1240  -29.0770  126.1630 N.am   32  CYS32      -0.1970
     12  CA        21.3180  -28.5040  125.5740 C.3    32  CYS32       0.1712
     13  C         21.5580  -27.0390  125.9380 C.2    32  CYS32       0.2296
     14  O         22.6980  -26.5650  125.9220 O.2    32  CYS32      -0.2864
     15  CB        21.2380  -28.6440  124.0520 C.3    32  CYS32       0.0983
     16  SG        21.4860  -30.3050  123.4760 S.3    32  CYS32      -0.0798
     17  N         20.1010  -25.0560  128.9490 N.3    34  TYR34      -0.1241
     18  CA        20.2390  -24.6830  130.3520 C.3    34  TYR34       0.1605
     19  C         19.7020  -23.2680  130.5830 C.2    34  TYR34       0.2264
     20  O         20.2830  -22.4790  131.3290 O.2    34  TYR34      -0.2867
     21  CB        21.7140  -24.7650  130.7850 C.3    34  TYR34       0.0534
     22  CG        22.2430  -26.1780  130.9450 C.ar   34  TYR34      -0.0201
     23  CD1       22.6490  -26.9320  129.8450 C.ar   34  TYR34      -0.0009
     24  CD2       22.2920  -26.7750  132.2080 C.ar   34  TYR34      -0.0009
     25  CE1       23.0870  -28.2510  130.0050 C.ar   34  TYR34       0.0417
     26  CE2       22.7250  -28.0830  132.3790 C.ar   34  TYR34       0.0417
     27  CZ        23.1170  -28.8160  131.2820 C.ar   34  TYR34       0.1957
     28  OH        23.5120  -30.1180  131.4730 O.3    34  TYR34      -0.2866
     29  N         24.0250  -21.2740  137.7510 N.3    41  ILE41      -0.1245
     30  CA        25.2860  -21.9970  137.6540 C.3    41  ILE41       0.1561
     31  C         26.4750  -21.0630  137.7150 C.2    41  ILE41       0.2260
     32  O         27.3830  -21.2650  138.5160 O.2    41  ILE41      -0.2867
     33  CB        25.3660  -22.8040  136.3560 C.3    41  ILE41       0.0252
     34  CG1       24.5240  -24.0760  136.4800 C.3    41  ILE41       0.0019
     35  CG2       26.8200  -23.1260  136.0230 C.3    41  ILE41       0.0019
     36  CD1       24.3610  -24.8390  135.1710 C.3    41  ILE41       0.0001
     37  N         27.9610  -20.4330  141.0600 N.3    44  LEU44      -0.1245
     38  CA        28.7360  -21.4080  141.8070 C.3    44  LEU44       0.1561
     39  C         30.2450  -21.2470  141.6740 C.2    44  LEU44       0.2260
     40  O         30.7590  -20.9330  140.5890 O.2    44  LEU44      -0.2867
     41  CB        28.3540  -22.8060  141.3500 C.3    44  LEU44       0.0270
     42  CG        26.8830  -23.1780  141.4340 C.3    44  LEU44       0.0019
     43  CD1       26.7280  -24.5780  140.8750 C.3    44  LEU44       0.0001
     44  CD2       26.3930  -23.1140  142.8810 C.3    44  LEU44       0.0001
     45  N         33.8230  -22.1130  140.9370 N.3    46  LYS46      -0.1245
     46  CA        34.3700  -23.1020  140.0050 C.3    46  LYS46       0.1561
     47  C         35.7980  -23.5050  140.3580 C.2    46  LYS46       0.2260
     48  O         36.3330  -23.1150  141.4040 O.2    46  LYS46      -0.2867
     49  CB        34.3700  -22.5560  138.5800 C.3    46  LYS46       0.0271
     50  CG        33.0870  -21.8950  138.1400 C.3    46  LYS46       0.0035
     51  CD        31.9190  -22.8430  138.1150 C.3    46  LYS46       0.0206
     52  CE        30.7860  -22.2450  137.2840 C.3    46  LYS46       0.1093
     53  NZ        30.3430  -20.9080  137.7810 N.3    46  LYS46      -0.1314
     54  N         37.0610  -26.7630  133.3530 N.3    50  GLU50      -0.1231
     55  CA        35.9620  -27.5730  132.8600 C.3    50  GLU50       0.1699
     56  C         35.6840  -27.3690  131.3750 C.2    50  GLU50       0.2593
     57  O         35.6660  -26.2460  130.8670 O.2    50  GLU50      -0.2718
     58  CB        34.6810  -27.2770  133.6450 C.3    50  GLU50       0.0402
     59  CG        34.1850  -25.8420  133.5080 C.3    50  GLU50       0.1161
     60  CD        32.6710  -25.7490  133.4240 C.2    50  GLU50       0.3649
     61  OE1       31.9860  -26.2660  134.3320 O.co2  50  GLU50      -0.2457
     62  OE2       32.1680  -25.1550  132.4450 O.co2  50  GLU50      -0.2457
     63  N         35.4740  -28.4800  130.6890 N.am   51  GLY51      -0.1942
     64  CA        35.1510  -28.4490  129.2790 C.3    51  GLY51       0.2014
     65  C         33.9300  -29.3340  129.2110 C.2    51  GLY51       0.2639
     66  O         32.8200  -28.9040  129.5320 O.2    51  GLY51      -0.2714
     67  N         34.1410  -30.5830  128.8210 N.am   52  ASN52      -0.1958
     68  CA        33.0580  -31.5430  128.7550 C.3    52  ASN52       0.1819
     69  C         33.0930  -32.3770  130.0240 C.2    52  ASN52       0.2621
     70  O         32.4580  -33.4260  130.1290 O.2    52  ASN52      -0.2715
     71  CB        33.2140  -32.4240  127.5200 C.3    52  ASN52       0.1195
     72  CG        32.5760  -31.8130  126.2970 C.2    52  ASN52       0.2630
     73  OD1       32.6710  -32.3540  125.2020 O.2    52  ASN52      -0.2716
     74  ND2       31.9100  -30.6790  126.4820 N.am   52  ASN52      -0.0877
     75  N         33.8510  -31.8790  130.9910 N.am   53  ALA53      -0.1977
     76  CA        34.0130  -32.5240  132.2830 C.3    53  ALA53       0.1597
     77  C         35.0880  -31.7530  133.0310 C.2    53  ALA53       0.2287
     78  O         36.0750  -31.3220  132.4360 O.2    53  ALA53      -0.2864
     79  CB        34.4370  -33.9690  132.1050 C.3    53  ALA53       0.0319
     80  N         32.7900  -36.0790  135.6540 N.3    67  LYS67      -0.1245
     81  CA        31.5280  -35.3620  135.4430 C.3    67  LYS67       0.1561
     82  C         30.4000  -36.3560  135.7160 C.2    67  LYS67       0.2260
     83  O         30.5960  -37.5420  135.5660 O.2    67  LYS67      -0.2867
     84  CB        31.4730  -34.8540  134.0110 C.3    67  LYS67       0.0271
     85  CG        30.2540  -34.0530  133.6550 C.3    67  LYS67       0.0035
     86  CD        30.4790  -33.4350  132.3030 C.3    67  LYS67       0.0206
     87  CE        29.2090  -32.9170  131.7020 C.3    67  LYS67       0.1093
     88  NZ        28.2180  -34.0110  131.5240 N.3    67  LYS67      -0.1314
     89  N         26.6150  -37.2200  134.6070 N.3    69  GLU69      -0.1245
     90  CA        25.4720  -36.9550  133.7290 C.3    69  GLU69       0.1567
     91  C         24.2570  -37.7610  134.1240 C.2    69  GLU69       0.2260
     92  O         24.3640  -38.7370  134.8580 O.2    69  GLU69      -0.2867
     93  CB        25.8560  -37.2740  132.2810 C.3    69  GLU69       0.0388
     94  CG        25.3750  -36.2580  131.2540 C.3    69  GLU69       0.1160
     95  CD        26.2400  -36.2110  129.9900 C.2    69  GLU69       0.3649
     96  OE1       26.5060  -37.2830  129.3960 O.co2  69  GLU69      -0.2457
     97  OE2       26.6450  -35.0950  129.5870 O.co2  69  GLU69      -0.2457
     98  N         32.3420  -37.8470  127.4470 N.3    93  ASP93      -0.1239
     99  CA        32.6720  -36.5110  127.9140 C.3    93  ASP93       0.1674
    100  C         34.0140  -36.5820  128.6410 C.2    93  ASP93       0.2266
    101  O         34.8370  -35.6850  128.5070 O.2    93  ASP93      -0.2867
    102  CB        31.5930  -35.9610  128.8600 C.3    93  ASP93       0.1410
    103  CG        30.5570  -35.0850  128.1420 C.2    93  ASP93       0.3668
    104  OD1       30.9600  -34.2090  127.3430 O.co2  93  ASP93      -0.2456
    105  OD2       29.3410  -35.2590  128.3890 O.co2  93  ASP93      -0.2456
    106  N         35.2900  -32.8670  121.4400 N.3   213  GLN213     -0.1231
    107  CA        33.9970  -32.8070  122.0690 C.3   213  GLN213      0.1698
    108  C         33.2480  -34.0610  121.6850 C.2   213  GLN213      0.2592
    109  O         33.2890  -34.4910  120.5290 O.2   213  GLN213     -0.2718
    110  CB        33.2130  -31.5740  121.6340 C.3   213  GLN213      0.0381
    111  CG        31.8660  -31.5040  122.3530 C.3   213  GLN213      0.0905
    112  CD        31.4130  -30.0930  122.6430 C.2   213  GLN213      0.2608
    113  OE1       32.1370  -29.3120  123.2610 O.2   213  GLN213     -0.2717
    114  NE2       30.2050  -29.7590  122.2070 N.am  213  GLN213     -0.0878
    115  N         32.5730  -34.6600  122.6610 N.am  214  ASP214     -0.1974
    116  CA        31.8090  -35.8720  122.4030 C.3   214  ASP214      0.1709
    117  C         30.5630  -35.5410  121.6170 C.2   214  ASP214      0.2293
    118  O         30.1210  -34.3930  121.5730 O.2   214  ASP214     -0.2864
    119  CB        31.4050  -36.5450  123.7130 C.3   214  ASP214      0.1436
    120  CG        30.4860  -35.6880  124.5450 C.2   214  ASP214      0.3671
    121  OD1       30.8860  -34.5590  124.8960 O.co2 214  ASP214     -0.2456
    122  OD2       29.3650  -36.1460  124.8520 O.co2 214  ASP214     -0.2456
    123  N         29.4270  -25.7090  118.9450 N.3   226  GLU226     -0.1245
    124  CA        29.9500  -25.3860  120.2580 C.3   226  GLU226      0.1567
    125  C         31.4640  -25.3970  120.2580 C.2   226  GLU226      0.2260
    126  O         32.0800  -24.6940  121.0370 O.2   226  GLU226     -0.2867
    127  CB        29.3940  -26.3460  121.3070 C.3   226  GLU226      0.0388
    128  CG        27.8850  -26.3330  121.3630 C.3   226  GLU226      0.1160
    129  CD        27.3320  -27.1610  122.4970 C.2   226  GLU226      0.3649
    130  OE1       27.8550  -28.2730  122.7290 O.co2 226  GLU226     -0.2457
    131  OE2       26.3630  -26.7030  123.1460 O.co2 226  GLU226     -0.2457
    132  N         28.0750  -32.1780  140.1570 N.3   420  ASN420     -0.1240
    133  CA        26.7380  -32.4180  140.6400 C.3   420  ASN420      0.1653
    134  C         25.7480  -32.5390  139.5120 C.2   420  ASN420      0.2266
    135  O         25.9610  -32.0220  138.4220 O.2   420  ASN420     -0.2867
    136  CB        26.3130  -31.2750  141.5660 C.3   420  ASN420      0.1155
    137  CG        25.8730  -30.0440  140.8050 C.2   420  ASN420      0.2627
    138  OD1       24.7470  -29.9720  140.3520 O.2   420  ASN420     -0.2716
    139  ND2       26.7700  -29.0810  140.6450 N.am  420  ASN420     -0.0877
    140  N         21.6860  -31.9610  138.6870 N.3   422  VAL422     -0.1245
    141  CA        20.4670  -31.3490  139.1710 C.3   422  VAL422      0.1561
    142  C         19.2050  -32.0640  138.7180 C.2   422  VAL422      0.2260
    143  O         18.7600  -31.8810  137.5920 O.2   422  VAL422     -0.2867
    144  CB        20.3950  -29.9110  138.7040 C.3   422  VAL422      0.0252
    145  CG1       19.0390  -29.3440  139.0270 C.3   422  VAL422      0.0019
    146  CG2       21.5270  -29.1200  139.3460 C.3   422  VAL422      0.0019
    147  N         20.0090  -24.6990  143.9640 N.3   438  MET438     -0.1245
    148  CA        21.2280  -23.9940  143.5440 C.3   438  MET438      0.1570
    149  C         21.8700  -23.1440  144.6460 C.2   438  MET438      0.2261
    150  O         23.0930  -23.1120  144.7840 O.2   438  MET438     -0.2867
    151  CB        20.9300  -23.0870  142.3440 C.3   438  MET438      0.0387
    152  CG        20.9920  -23.7470  140.9670 C.3   438  MET438      0.0595
    153  SD        21.0580  -25.5140  141.0340 S.3   438  MET438     -0.1393
    154  CE        22.8540  -25.7750  140.7660 C.3   438  MET438      0.0692
    155  N         32.8590  -26.3050  142.7160 N.3   452  VAL452     -0.1245
    156  CA        32.1730  -27.0880  141.6970 C.3   452  VAL452      0.1561
    157  C         33.0770  -27.1300  140.4730 C.2   452  VAL452      0.2260
    158  O         33.4530  -26.0770  139.9300 O.2   452  VAL452     -0.2867
    159  CB        30.8490  -26.4500  141.3200 C.3   452  VAL452      0.0252
    160  CG1       30.2960  -27.1290  140.0750 C.3   452  VAL452      0.0019
    161  CG2       29.8720  -26.5730  142.4920 C.3   452  VAL452      0.0019
    162  N         32.3500  -29.2630  137.7180 N.3   454  SER454     -0.1202
    163  CA        31.5190  -29.5330  136.5580 C.3   454  SER454      0.2020
    164  C         30.1700  -29.9760  137.0860 C.2   454  SER454      0.2619
    165  O         29.9750  -30.0870  138.3050 O.2   454  SER454     -0.2717
    166  CB        32.1300  -30.6370  135.6730 C.3   454  SER454      0.2103
    167  OG        32.3130  -31.8660  136.3620 O.3   454  SER454     -0.2182
    168  N         29.2380  -30.2310  136.1760 N.am  455  GLY455     -0.1942
    169  CA        27.9230  -30.6530  136.6100 C.3   455  GLY455      0.2014
    170  C         26.9660  -30.9350  135.4780 C.2   455  GLY455      0.2639
    171  O         27.3110  -30.8080  134.3060 O.2   455  GLY455     -0.2714
    172  N         25.7530  -31.3190  135.8490 N.am  456  ASN456     -0.1958
    173  CA        24.7250  -31.6380  134.8930 C.3   456  ASN456      0.1819
    174  C         23.3750  -31.1570  135.4120 C.2   456  ASN456      0.2621
    175  O         23.2510  -30.7180  136.5630 O.2   456  ASN456     -0.2715
    176  CB        24.6900  -33.1480  134.6850 C.3   456  ASN456      0.1195
    177  CG        23.8530  -33.5570  133.4840 C.2   456  ASN456      0.2630
    178  OD1       22.8100  -34.2090  133.6250 O.2   456  ASN456     -0.2716
    179  ND2       24.3100  -33.1770  132.2920 N.am  456  ASN456     -0.0877
    180  N         22.3630  -31.2260  134.5560 N.am  457  ALA457     -0.1977
    181  CA        21.0270  -30.8290  134.9600 C.3   457  ALA457      0.1597
    182  C         19.9150  -31.5290  134.1630 C.2   457  ALA457      0.2287
    183  O         19.9750  -31.6860  132.9370 O.2   457  ALA457     -0.2864
    184  CB        20.8800  -29.3100  134.8800 C.3   457  ALA457      0.0319
@<TRIPOS>BOND
     1   123   124    1
     2   124   125    1
     3   124   127    1
     4   125   126    2
     5   109   108    2
     6   127   128    1
     7   128   129    1
     8   106   107    1
     9   118   117    2
    10   117   116    1
    11   110   107    1
    12   110   111    1
    13   108   107    1
    14   108   115   am
    15   114   112   am
    16   111   112    1
    17   116   115    1
    18   116   119    1
    19   129   130   ar
    20   129   131   ar
    21   112   113    2
    22    16    15    1
    23   119   120    1
    24    15    12    1
    25   120   122   ar
    26   120   121   ar
    27    73    72    2
    28    12    13    1
    29    12    11    1
    30    14    13    2
    31     8    10   ar
    32     8     6   ar
    33    11     3   am
    34    72    74   am
    35    72    71    1
    36    10     9   ar
    37     6     5    1
    38     6     7   ar
    39     5     2    1
    40   104   103   ar
    41     3     2    1
    42     3     4    2
    43    98    99    1
    44    71    68    1
    45     9     7   ar
    46     1     2    1
    47    99   100    1
    48    99   102    1
    49   103   105   ar
    50   103   102    1
    51   101   100    2
    52    68    67    1
    53    68    69    1
    54    67    65   am
    55    17    18    1
    56    65    64    1
    57    65    66    2
    58    64    63    1
    59    96    95   ar
    60    97    95   ar
    61    23    25   ar
    62    23    22   ar
    63    95    94    1
    64    25    27   ar
    65    69    70    2
    66    69    75   am
    67    18    19    1
    68    18    21    1
    69    19    20    2
    70    63    56   am
    71    21    22    1
    72    57    56    2
    73    22    24   ar
    74    75    76    1
    75    94    93    1
    76    27    28    1
    77    27    26   ar
    78    56    55    1
    79    88    87    1
    80    87    86    1
    81    79    76    1
    82    24    26   ar
    83    93    90    1
    84    76    77    1
    85   179   177   am
    86    86    85    1
    87    78    77    2
    88    62    60   ar
    89    55    54    1
    90    55    58    1
    91   183   182    2
    92    60    59    1
    93    60    61   ar
    94   177   178    2
    95   177   176    1
    96    59    58    1
    97    85    84    1
    98    90    91    1
    99    90    89    1
   100    84    81    1
   101    91    92    2
   102   182   181    1
   103   171   170    2
   104   180   181    1
   105   180   174   am
   106   176   173    1
   107   184   181    1
   108   173   174    1
   109   173   172    1
   110    36    34    1
   111   174   175    2
   112    81    80    1
   113    81    82    1
   114   170   172   am
   115   170   169    1
   116    83    82    2
   117   166   167    1
   118   166   163    1
   119    35    33    1
   120   168   169    1
   121   168   164   am
   122    33    34    1
   123    33    30    1
   124   163   164    1
   125   163   162    1
   126   164   165    2
   127    52    53    1
   128    52    51    1
   129   143   142    2
   130    30    31    1
   131    30    29    1
   132    31    32    2
   133    51    50    1
   134    50    49    1
   135   135   134    2
   136    49    46    1
   137   140   141    1
   138   144   145    1
   139   144   141    1
   140   144   146    1
   141   142   141    1
   142   134   133    1
   143   158   157    2
   144    46    47    1
   145    46    45    1
   146   160   159    1
   147   132   133    1
   148   138   137    2
   149    47    48    2
   150   157   156    1
   151    40    39    2
   152   133   136    1
   153   139   137   am
   154   154   153    1
   155   137   136    1
   156    43    42    1
   157   152   153    1
   158   152   151    1
   159    37    38    1
   160   159   156    1
   161   159   161    1
   162    41    42    1
   163    41    38    1
   164    42    44    1
   165    39    38    1
   166   156   155    1
   167   151   148    1
   168   148   147    1
   169   148   149    1
   170   149   150    2
