@<TRIPOS>MOLECULE
tmp/2hryA00.pdb
 171 156 0 0 0
SMALL
GASTEIGER

@<TRIPOS>ATOM
      1  N         46.0460  -28.8460  191.8060 N.3    31  HIS31      -0.1226
      2  CA        47.1680  -29.7950  191.8480 C.3    31  HIS31       0.1752
      3  C         48.5070  -29.2800  191.3250 C.2    31  HIS31       0.2596
      4  O         49.5630  -29.6450  191.8450 O.2    31  HIS31      -0.2718
      5  CB        46.8240  -31.0800  191.0880 C.3    31  HIS31       0.0759
      6  CG        47.9290  -32.0920  191.0950 C.ar   31  HIS31       0.0818
      7  ND1       48.1410  -32.9610  192.1440 N.ar   31  HIS31      -0.2268
      8  CD2       48.9180  -32.3370  190.2030 C.ar   31  HIS31       0.1154
      9  CE1       49.2110  -33.6970  191.8980 C.ar   31  HIS31       0.1986
     10  NE2       49.7020  -33.3380  190.7260 N.ar   31  HIS31      -0.2212
     11  N         48.4700  -28.4650  190.2780 N.am   32  CYS32      -0.1970
     12  CA        49.7020  -27.9260  189.7230 C.3    32  CYS32       0.1712
     13  C         49.8060  -26.4550  190.0710 C.2    32  CYS32       0.2296
     14  O         50.8880  -25.8700  190.0050 O.2    32  CYS32      -0.2864
     15  CB        49.7270  -28.0890  188.2000 C.3    32  CYS32       0.0983
     16  SG        49.6850  -29.7790  187.6190 S.3    32  CYS32      -0.0798
     17  N         48.1980  -24.7210  193.1920 N.3    34  TYR34      -0.1241
     18  CA        48.3890  -24.4030  194.6120 C.3    34  TYR34       0.1605
     19  C         47.8390  -23.0310  194.9290 C.2    34  TYR34       0.2264
     20  O         48.4260  -22.2770  195.6920 O.2    34  TYR34      -0.2867
     21  CB        49.8800  -24.4500  194.9860 C.3    34  TYR34       0.0534
     22  CG        50.4010  -25.8530  195.0650 C.ar   34  TYR34      -0.0201
     23  CD1       50.5150  -26.6440  193.9210 C.ar   34  TYR34      -0.0009
     24  CD2       50.6600  -26.4360  196.2940 C.ar   34  TYR34      -0.0009
     25  CE1       50.8620  -27.9860  194.0100 C.ar   34  TYR34       0.0417
     26  CE2       51.0040  -27.7720  196.3940 C.ar   34  TYR34       0.0417
     27  CZ        51.1010  -28.5500  195.2580 C.ar   34  TYR34       0.1957
     28  OH        51.3960  -29.8940  195.3930 O.3    34  TYR34      -0.2866
     29  N         52.3890  -21.4460  201.8630 N.3    41  ILE41      -0.1245
     30  CA        53.6870  -22.1010  201.7360 C.3    41  ILE41       0.1561
     31  C         54.8490  -21.1000  201.6920 C.2    41  ILE41       0.2260
     32  O         55.9260  -21.3590  202.2370 O.2    41  ILE41      -0.2867
     33  CB        53.7170  -23.0050  200.4710 C.3    41  ILE41       0.0252
     34  CG1       52.6970  -24.1380  200.6320 C.3    41  ILE41       0.0019
     35  CG2       55.1180  -23.5880  200.2620 C.3    41  ILE41       0.0019
     36  CD1       52.1240  -24.6320  199.3370 C.3    41  ILE41       0.0001
     37  N         56.0070  -20.4280  205.1170 N.3    44  LEU44      -0.1245
     38  CA        56.7710  -21.4510  205.8250 C.3    44  LEU44       0.1561
     39  C         58.2740  -21.2570  205.6680 C.2    44  LEU44       0.2260
     40  O         58.7510  -20.8090  204.6230 O.2    44  LEU44      -0.2867
     41  CB        56.4060  -22.8460  205.3080 C.3    44  LEU44       0.0270
     42  CG        55.0670  -23.4590  205.7220 C.3    44  LEU44       0.0019
     43  CD1       54.7610  -24.6640  204.8490 C.3    44  LEU44       0.0001
     44  CD2       55.1140  -23.8530  207.1870 C.3    44  LEU44       0.0001
     45  N         62.0820  -22.2720  205.0070 N.3    46  LYS46      -0.1245
     46  CA        62.5560  -23.2960  204.0810 C.3    46  LYS46       0.1561
     47  C         64.0580  -23.5470  204.0610 C.2    46  LYS46       0.2260
     48  O         64.7670  -23.1770  204.9940 O.2    46  LYS46      -0.2867
     49  CB        62.0390  -22.9630  202.6780 C.3    46  LYS46       0.0271
     50  CG        60.5340  -22.7080  202.6980 C.3    46  LYS46       0.0035
     51  CD        59.9480  -22.4270  201.3410 C.3    46  LYS46       0.0206
     52  CE        58.6340  -21.6670  201.4690 C.3    46  LYS46       0.1093
     53  NZ        58.8650  -20.2370  201.8110 N.3    46  LYS46      -0.1314
     54  N         61.1950  -36.1260  199.3310 N.3    61  LYS61      -0.1245
     55  CA        59.9290  -35.4330  199.1950 C.3    61  LYS61       0.1561
     56  C         58.7730  -36.3900  199.4450 C.2    61  LYS61       0.2260
     57  O         58.9140  -37.6130  199.3250 O.2    61  LYS61      -0.2867
     58  CB        59.8060  -34.8120  197.8030 C.3    61  LYS61       0.0271
     59  CG        58.5130  -34.0360  197.5780 C.3    61  LYS61       0.0035
     60  CD        58.5600  -33.2550  196.2760 C.3    61  LYS61       0.0206
     61  CE        57.1700  -33.0480  195.7000 C.3    61  LYS61       0.1093
     62  NZ        56.2410  -32.4530  196.6840 N.3    61  LYS61      -0.1314
     63  N         54.4520  -37.0510  198.7400 N.3    63  GLU63      -0.1245
     64  CA        53.4570  -36.7880  197.7170 C.3    63  GLU63       0.1567
     65  C         52.2280  -37.5980  198.0480 C.2    63  GLU63       0.2260
     66  O         52.3120  -38.6230  198.7170 O.2    63  GLU63      -0.2867
     67  CB        53.9930  -37.2010  196.3480 C.3    63  GLU63       0.0388
     68  CG        53.3100  -36.5270  195.1770 C.3    63  GLU63       0.1160
     69  CD        53.9550  -36.8850  193.8510 C.2    63  GLU63       0.3649
     70  OE1       53.6780  -37.9860  193.3310 O.co2  63  GLU63      -0.2457
     71  OE2       54.7530  -36.0710  193.3330 O.co2  63  GLU63      -0.2457
     72  N         55.9050  -41.5710  190.5460 N.3    83  GLY83      -0.1225
     73  CA        56.0770  -40.1370  190.4240 C.3    83  GLY83       0.1811
     74  C         56.9930  -39.5250  191.4630 C.2    83  GLY83       0.2280
     75  O         57.9100  -38.7740  191.1190 O.2    83  GLY83      -0.2866
     76  N         60.6440  -37.4340  191.2360 N.3    87  ASP87      -0.1239
     77  CA        60.8820  -36.1230  191.8300 C.3    87  ASP87       0.1674
     78  C         62.2310  -36.1400  192.5300 C.2    87  ASP87       0.2266
     79  O         62.9900  -35.1700  192.4740 O.2    87  ASP87      -0.2867
     80  CB        59.7710  -35.7680  192.8280 C.3    87  ASP87       0.1410
     81  CG        58.5110  -35.2570  192.1420 C.2    87  ASP87       0.3668
     82  OD1       57.3950  -35.4890  192.6660 O.co2  87  ASP87      -0.2456
     83  OD2       58.6370  -34.6100  191.0820 O.co2  87  ASP87      -0.2456
     84  N         63.5520  -32.1630  185.4680 N.3   207  GLN207     -0.1231
     85  CA        62.2630  -32.1990  186.1270 C.3   207  GLN207      0.1698
     86  C         61.5460  -33.4260  185.6490 C.2   207  GLN207      0.2592
     87  O         61.5290  -33.7150  184.4520 O.2   207  GLN207     -0.2718
     88  CB        61.4220  -30.9680  185.8030 C.3   207  GLN207      0.0381
     89  CG        60.1180  -30.9510  186.5760 C.3   207  GLN207      0.0905
     90  CD        59.4720  -29.5890  186.6120 C.2   207  GLN207      0.2608
     91  OE1       60.1370  -28.5820  186.8670 O.2   207  GLN207     -0.2717
     92  NE2       58.1580  -29.5490  186.3780 N.am  207  GLN207     -0.0878
     93  N         60.9580  -34.1570  186.5860 N.am  208  ASP208     -0.1974
     94  CA        60.2250  -35.3610  186.2300 C.3   208  ASP208      0.1709
     95  C         58.9120  -34.9730  185.5830 C.2   208  ASP208      0.2293
     96  O         58.4520  -33.8360  185.7090 O.2   208  ASP208     -0.2864
     97  CB        59.9390  -36.2060  187.4730 C.3   208  ASP208      0.1436
     98  CG        59.0690  -35.4800  188.4840 C.2   208  ASP208      0.3671
     99  OD1       59.4680  -34.3780  188.9220 O.co2 208  ASP208     -0.2456
    100  OD2       57.9950  -36.0170  188.8390 O.co2 208  ASP208     -0.2456
    101  N         54.9930  -35.5990  185.5460 N.3   210  GLY210     -0.1210
    102  CA        53.8410  -36.1380  186.2340 C.3   210  GLY210      0.1956
    103  C         52.6480  -35.3260  185.7670 C.2   210  GLY210      0.2611
    104  O         52.3180  -35.3010  184.5770 O.2   210  GLY210     -0.2717
    105  N         52.0080  -34.6450  186.7060 N.am  211  ALA211     -0.1979
    106  CA        50.8620  -33.8120  186.3920 C.3   211  ALA211      0.1597
    107  C         51.2810  -32.7960  185.3510 C.2   211  ALA211      0.2287
    108  O         52.3540  -32.2040  185.4570 O.2   211  ALA211     -0.2864
    109  CB        50.3850  -33.1070  187.6370 C.3   211  ALA211      0.0319
    110  N         57.7680  -25.1400  183.4560 N.3   220  GLU220     -0.1245
    111  CA        58.3460  -24.9310  184.7640 C.3   220  GLU220      0.1567
    112  C         59.8580  -24.9270  184.7530 C.2   220  GLU220      0.2260
    113  O         60.4810  -24.0730  185.3740 O.2   220  GLU220     -0.2867
    114  CB        57.8320  -25.9920  185.7290 C.3   220  GLU220      0.0388
    115  CG        56.4390  -25.7110  186.2340 C.3   220  GLU220      0.1160
    116  CD        55.9350  -26.7920  187.1550 C.2   220  GLU220      0.3649
    117  OE1       56.7730  -27.3920  187.8610 O.co2 220  GLU220     -0.2457
    118  OE2       54.7050  -27.0270  187.1810 O.co2 220  GLU220     -0.2457
    119  N         56.5110  -32.1450  203.6840 N.3   414  ASN414     -0.1240
    120  CA        55.1780  -32.3530  204.2200 C.3   414  ASN414      0.1653
    121  C         54.0670  -32.3510  203.1840 C.2   414  ASN414      0.2266
    122  O         54.1580  -31.7190  202.1320 O.2   414  ASN414     -0.2867
    123  CB        54.8830  -31.2840  205.2560 C.3   414  ASN414      0.1155
    124  CG        54.5660  -29.9520  204.6270 C.2   414  ASN414      0.2627
    125  OD1       53.4080  -29.6580  204.3270 O.2   414  ASN414     -0.2716
    126  ND2       55.5990  -29.1400  204.4030 N.am  414  ASN414     -0.0877
    127  N         49.9700  -31.6740  202.7910 N.3   416  VAL416     -0.1245
    128  CA        48.7280  -31.1650  203.3290 C.3   416  VAL416      0.1561
    129  C         47.6090  -31.9810  202.7030 C.2   416  VAL416      0.2260
    130  O         47.5380  -32.1280  201.4860 O.2   416  VAL416     -0.2867
    131  CB        48.5330  -29.6910  202.9600 C.3   416  VAL416      0.0252
    132  CG1       47.1420  -29.2280  203.3640 C.3   416  VAL416      0.0019
    133  CG2       49.6050  -28.8540  203.6390 C.3   416  VAL416      0.0019
    134  N         48.2030  -24.8660  208.0490 N.3   432  MET432     -0.1245
    135  CA        49.4220  -24.2610  207.5570 C.3   432  MET432      0.1570
    136  C         50.1400  -23.4570  208.6320 C.2   432  MET432      0.2261
    137  O         51.3620  -23.4860  208.7040 O.2   432  MET432     -0.2867
    138  CB        49.1040  -23.3780  206.3560 C.3   432  MET432      0.0387
    139  CG        48.5150  -24.1500  205.1930 C.3   432  MET432      0.0595
    140  SD        49.5780  -25.5130  204.6700 S.3   432  MET432     -0.1393
    141  CE        50.7740  -24.6370  203.7270 C.3   432  MET432      0.0692
    142  N         61.2640  -26.3120  206.4340 N.3   446  VAL446     -0.1245
    143  CA        60.5230  -27.1030  205.4550 C.3   446  VAL446      0.1561
    144  C         61.3130  -27.1460  204.1490 C.2   446  VAL446      0.2260
    145  O         61.4780  -26.1250  203.4820 O.2   446  VAL446     -0.2867
    146  CB        59.1120  -26.4790  205.1960 C.3   446  VAL446      0.0252
    147  CG1       58.4760  -27.0950  203.9690 C.3   446  VAL446      0.0019
    148  CG2       58.2110  -26.6940  206.4200 C.3   446  VAL446      0.0019
    149  N         60.4960  -29.1260  201.4940 N.3   448  SER448     -0.1202
    150  CA        59.5830  -29.2880  200.3750 C.3   448  SER448      0.2020
    151  C         58.2970  -29.8610  200.9280 C.2   448  SER448      0.2619
    152  O         58.1340  -29.9860  202.1420 O.2   448  SER448     -0.2717
    153  CB        60.1710  -30.2490  199.3430 C.3   448  SER448      0.2103
    154  OG        60.3430  -31.5350  199.9140 O.3   448  SER448     -0.2182
    155  N         57.3820  -30.2150  200.0380 N.am  449  GLY449     -0.1942
    156  CA        56.1250  -30.7700  200.4910 C.3   449  GLY449      0.2014
    157  C         55.1150  -30.8870  199.3750 C.2   449  GLY449      0.2639
    158  O         55.3540  -30.4540  198.2540 O.2   449  GLY449     -0.2714
    159  N         53.9700  -31.4630  199.6990 N.am  450  ASN450     -0.1958
    160  CA        52.9100  -31.6660  198.7340 C.3   450  ASN450      0.1819
    161  C         51.5890  -31.1570  199.3140 C.2   450  ASN450      0.2621
    162  O         51.4200  -31.0690  200.5350 O.2   450  ASN450     -0.2715
    163  CB        52.8440  -33.1660  198.4060 C.3   450  ASN450      0.1195
    164  CG        51.7310  -33.5170  197.4400 C.2   450  ASN450      0.2630
    165  OD1       50.5850  -33.7200  197.8410 O.2   450  ASN450     -0.2716
    166  ND2       52.0650  -33.5920  196.1550 N.am  450  ASN450     -0.0877
    167  N         50.6670  -30.7810  198.4390 N.am  451  ALA451     -0.1977
    168  CA        49.3640  -30.3190  198.8980 C.3   451  ALA451      0.1597
    169  C         48.2250  -31.0330  198.1640 C.2   451  ALA451      0.2287
    170  O         48.2080  -31.1200  196.9290 O.2   451  ALA451     -0.2864
    171  CB        49.2330  -28.8050  198.7280 C.3   451  ALA451      0.0319
@<TRIPOS>BOND
     1   110   111    1
     2    87    86    2
     3   104   103    2
     4   112   111    1
     5   112   113    2
     6   111   114    1
     7   107   108    2
     8   107   106    1
     9    84    85    1
    10   101   102    1
    11    95    96    2
    12    95    94    1
    13    86    85    1
    14    86    93   am
    15   114   115    1
    16   103   102    1
    17   103   105   am
    18    88    85    1
    19    88    89    1
    20    94    93    1
    21    94    97    1
    22   115   116    1
    23    92    90   am
    24   106   105    1
    25   106   109    1
    26    89    90    1
    27    90    91    2
    28   116   118   ar
    29   116   117   ar
    30    97    98    1
    31    16    15    1
    32    15    12    1
    33    98   100   ar
    34    98    99   ar
    35    12    13    1
    36    12    11    1
    37    14    13    2
    38     8    10   ar
    39     8     6   ar
    40    11     3   am
    41    73    72    1
    42    73    74    1
    43    10     9   ar
    44    83    81   ar
    45     5     6    1
    46     5     2    1
    47     6     7   ar
    48    75    74    2
    49    76    77    1
    50     3     4    2
    51     3     2    1
    52     1     2    1
    53    77    78    1
    54    77    80    1
    55     9     7   ar
    56    81    82   ar
    57    81    80    1
    58    79    78    2
    59    17    18    1
    60    70    69   ar
    61    71    69   ar
    62    69    68    1
    63    23    25   ar
    64    23    22   ar
    65    25    27   ar
    66    18    19    1
    67    18    21    1
    68    19    20    2
    69    21    22    1
    70    22    24   ar
    71    68    67    1
    72    27    28    1
    73    27    26   ar
    74    61    60    1
    75    61    62    1
    76   166   164   am
    77    60    59    1
    78    24    26   ar
    79    67    64    1
    80   170   169    2
    81   164   165    2
    82   164   163    1
    83    59    58    1
    84    64    65    1
    85    64    63    1
    86    58    55    1
    87    65    66    2
    88   169   168    1
    89   158   157    2
    90   163   160    1
    91   167   168    1
    92   167   161   am
    93   171   168    1
    94   160   161    1
    95   160   159    1
    96    55    54    1
    97    55    56    1
    98   161   162    2
    99    57    56    2
   100    36    34    1
   101   153   154    1
   102   153   150    1
   103   157   159   am
   104   157   156    1
   105   155   156    1
   106   155   151   am
   107    35    33    1
   108   150   151    1
   109   150   149    1
   110    33    34    1
   111    33    30    1
   112   151   152    2
   113    51    52    1
   114    51    50    1
   115    52    53    1
   116   130   129    2
   117    31    30    1
   118    31    32    2
   119    30    29    1
   120   122   121    2
   121    49    50    1
   122    49    46    1
   123   129   128    1
   124   127   128    1
   125   131   128    1
   126   131   132    1
   127   131   133    1
   128   121   120    1
   129   145   144    2
   130   119   120    1
   131   141   140    1
   132   147   146    1
   133    47    46    1
   134    47    48    2
   135    46    45    1
   136   144   143    1
   137   120   123    1
   138   125   124    2
   139   126   124   am
   140    40    39    2
   141   124   123    1
   142   140   139    1
   143    43    42    1
   144    37    38    1
   145   139   138    1
   146   146   143    1
   147   146   148    1
   148    41    42    1
   149    41    38    1
   150   143   142    1
   151    39    38    1
   152    42    44    1
   153   138   135    1
   154   135   134    1
   155   135   136    1
   156   136   137    2
