@<TRIPOS>MOLECULE
tmp/2hs0A01.pdb
 111 100 0 0 0
SMALL
GASTEIGER

@<TRIPOS>ATOM
      1  N         19.7820  -25.3200  129.6030 N.3    34  TYR34      -0.1241
      2  CA        19.9870  -24.9270  131.0060 C.3    34  TYR34       0.1605
      3  C         19.3310  -23.5920  131.3050 C.2    34  TYR34       0.2264
      4  O         19.7450  -22.8830  132.2200 O.2    34  TYR34      -0.2867
      5  CB        21.4820  -24.9260  131.4050 C.3    34  TYR34       0.0534
      6  CG        22.0250  -26.3290  131.5470 C.ar   34  TYR34      -0.0201
      7  CD1       22.5100  -27.0110  130.4620 C.ar   34  TYR34      -0.0009
      8  CD2       22.0400  -26.9630  132.7770 C.ar   34  TYR34      -0.0009
      9  CE1       22.9560  -28.3230  130.5940 C.ar   34  TYR34       0.0417
     10  CE2       22.5050  -28.2310  132.9360 C.ar   34  TYR34       0.0417
     11  CZ        22.9720  -28.9270  131.8360 C.ar   34  TYR34       0.1957
     12  OH        23.4070  -30.2260  131.9710 O.3    34  TYR34      -0.2866
     13  N         18.6290  -22.9970  134.8030 N.3    37  THR37      -0.1218
     14  CA        19.7250  -23.1620  135.7640 C.3    37  THR37       0.1862
     15  C         21.0330  -22.4570  135.5300 C.2    37  THR37       0.2287
     16  O         21.7710  -22.3740  136.5090 O.2    37  THR37      -0.2866
     17  CB        20.1170  -24.5920  136.0450 C.3    37  THR37       0.1770
     18  OG1       20.4890  -25.2080  134.8130 O.3    37  THR37      -0.2211
     19  CG2       18.9480  -25.3540  136.6520 C.3    37  THR37       0.0375
     20  N         24.0780  -21.4800  138.2970 N.3    41  ILE41      -0.1245
     21  CA        25.3450  -22.1710  138.0670 C.3    41  ILE41       0.1561
     22  C         26.4980  -21.1640  138.0310 C.2    41  ILE41       0.2260
     23  O         27.5740  -21.3920  138.6080 O.2    41  ILE41      -0.2867
     24  CB        25.3340  -23.1060  136.8290 C.3    41  ILE41       0.0252
     25  CG1       24.3590  -24.2590  136.9590 C.3    41  ILE41       0.0019
     26  CG2       26.7090  -23.7410  136.5680 C.3    41  ILE41       0.0019
     27  CD1       24.1390  -24.9850  135.6020 C.3    41  ILE41       0.0001
     28  N         27.8240  -20.5950  141.5940 N.3    44  LEU44      -0.1245
     29  CA        28.6840  -21.5800  142.2460 C.3    44  LEU44       0.1561
     30  C         30.1790  -21.2210  142.2140 C.2    44  LEU44       0.2260
     31  O         30.7420  -20.8480  141.1530 O.2    44  LEU44      -0.2867
     32  CB        28.4980  -22.9380  141.5520 C.3    44  LEU44       0.0270
     33  CG        27.0630  -23.4770  141.4470 C.3    44  LEU44       0.0019
     34  CD1       26.9710  -24.8680  140.7880 C.3    44  LEU44       0.0001
     35  CD2       26.2060  -23.3970  142.7510 C.3    44  LEU44       0.0001
     36  N         33.6560  -22.3340  141.5010 N.3    46  LYS46      -0.1245
     37  CA        34.2010  -23.2880  140.5370 C.3    46  LYS46       0.1561
     38  C         35.7150  -23.5510  140.5800 C.2    46  LYS46       0.2260
     39  O         36.4770  -22.8570  141.2510 O.2    46  LYS46      -0.2867
     40  CB        33.7080  -22.9280  139.1330 C.3    46  LYS46       0.0271
     41  CG        32.2050  -23.1070  139.0450 C.3    46  LYS46       0.0035
     42  CD        31.6460  -22.8820  137.6760 C.3    46  LYS46       0.0206
     43  CE        30.3100  -22.1300  137.7180 C.3    46  LYS46       0.1093
     44  NZ        30.3090  -20.7250  138.2930 N.3    46  LYS46      -0.1314
     45  N         37.3640  -26.9990  132.8560 N.3    53  ALA53      -0.1245
     46  CA        36.2940  -27.5230  133.7030 C.3    53  ALA53       0.1562
     47  C         36.3610  -29.0320  133.7330 C.2    53  ALA53       0.2260
     48  O         36.5150  -29.6800  132.6830 O.2    53  ALA53      -0.2867
     49  CB        34.9220  -27.1370  133.1680 C.3    53  ALA53       0.0290
     50  N         32.9730  -36.3160  136.1100 N.3    67  LYS67      -0.1245
     51  CA        31.7060  -35.6490  135.8790 C.3    67  LYS67       0.1561
     52  C         30.5820  -36.6330  136.1550 C.2    67  LYS67       0.2260
     53  O         30.7940  -37.8240  136.1290 O.2    67  LYS67      -0.2867
     54  CB        31.6420  -35.1000  134.4430 C.3    67  LYS67       0.0271
     55  CG        30.3310  -34.3560  134.2030 C.3    67  LYS67       0.0035
     56  CD        30.2730  -33.7030  132.8500 C.3    67  LYS67       0.0206
     57  CE        28.8950  -33.8410  132.1980 C.3    67  LYS67       0.1093
     58  NZ        27.9550  -32.7210  132.5530 N.3    67  LYS67      -0.1314
     59  N         28.0510  -32.4030  140.5900 N.3   419  ASN419     -0.1240
     60  CA        26.7920  -32.6020  141.2910 C.3   419  ASN419      0.1653
     61  C         25.7680  -32.8320  140.2210 C.2   419  ASN419      0.2266
     62  O         25.9640  -32.3290  139.1220 O.2   419  ASN419     -0.2867
     63  CB        26.4520  -31.3440  142.1040 C.3   419  ASN419      0.1155
     64  CG        26.1610  -30.1400  141.2310 C.2   419  ASN419      0.2627
     65  OD1       25.0190  -29.9530  140.8370 O.2   419  ASN419     -0.2716
     66  ND2       27.1990  -29.4080  140.8190 N.am  419  ASN419     -0.0877
     67  N         21.7480  -32.1880  139.7130 N.3   421  VAL421     -0.1245
     68  CA        20.4890  -31.5590  140.1540 C.3   421  VAL421      0.1561
     69  C         19.2680  -32.2440  139.5830 C.2   421  VAL421      0.2260
     70  O         19.0230  -32.1230  138.4020 O.2   421  VAL421     -0.2867
     71  CB        20.4870  -30.0620  139.6660 C.3   421  VAL421      0.0252
     72  CG1       19.1180  -29.4820  139.9340 C.3   421  VAL421      0.0019
     73  CG2       21.6170  -29.2910  140.3900 C.3   421  VAL421      0.0019
     74  N         19.7420  -24.9060  144.6550 N.3   437  MET437     -0.1245
     75  CA        20.9850  -24.3440  144.0740 C.3   437  MET437      0.1570
     76  C         21.7710  -23.4470  145.0340 C.2   437  MET437      0.2261
     77  O         23.0140  -23.2950  144.9490 O.2   437  MET437     -0.2867
     78  CB        20.6830  -23.5720  142.7960 C.3   437  MET437      0.0387
     79  CG        20.0910  -24.4260  141.6700 C.3   437  MET437      0.0595
     80  SD        20.9740  -26.0010  141.4680 S.3   437  MET437     -0.1393
     81  CE        22.4370  -25.2750  140.7590 C.3   437  MET437      0.0692
     82  N         33.0240  -26.3750  142.9550 N.3   451  VAL451     -0.1245
     83  CA        32.2920  -27.2760  142.0570 C.3   451  VAL451      0.1561
     84  C         33.0880  -27.2990  140.7380 C.2   451  VAL451      0.2260
     85  O         33.2670  -26.2550  140.1080 O.2   451  VAL451     -0.2867
     86  CB        30.7950  -26.8090  141.8400 C.3   451  VAL451      0.0252
     87  CG1       30.1130  -27.6060  140.7400 C.3   451  VAL451      0.0019
     88  CG2       29.9420  -27.0090  143.1200 C.3   451  VAL451      0.0019
     89  N         32.0500  -29.2680  137.9410 N.3   453  SER453     -0.1202
     90  CA        31.2720  -29.7310  136.7880 C.3   453  SER453      0.2020
     91  C         29.9760  -30.2780  137.3650 C.2   453  SER453      0.2619
     92  O         29.8900  -30.5420  138.5610 O.2   453  SER453     -0.2717
     93  CB        32.0130  -30.8480  136.0220 C.3   453  SER453      0.2103
     94  OG        32.2740  -32.0120  136.8340 O.3   453  SER453     -0.2182
     95  N         28.9580  -30.4540  136.5410 N.am  454  GLY454     -0.1942
     96  CA        27.7210  -30.9250  137.1010 C.3   454  GLY454      0.2014
     97  C         26.7480  -31.1070  135.9570 C.2   454  GLY454      0.2639
     98  O         27.0570  -30.8810  134.8000 O.2   454  GLY454     -0.2714
     99  N         25.5080  -31.3920  136.2940 N.am  455  ASN455     -0.1958
    100  CA        24.5110  -31.5620  135.2770 C.3   455  ASN455      0.1819
    101  C         23.1350  -31.2200  135.8860 C.2   455  ASN455      0.2621
    102  O         23.0070  -31.1350  137.0900 O.2   455  ASN455     -0.2715
    103  CB        24.6450  -33.0250  134.8980 C.3   455  ASN455      0.1195
    104  CG        23.6330  -33.4370  133.8450 C.2   455  ASN455      0.2630
    105  OD1       22.5770  -33.9900  134.1820 O.2   455  ASN455     -0.2716
    106  ND2       23.9370  -33.1380  132.5730 N.am  455  ASN455     -0.0877
    107  N         22.0920  -31.0210  135.1000 N.am  456  ALA456     -0.1977
    108  CA        20.7600  -30.8660  135.6710 C.3   456  ALA456      0.1597
    109  C         19.6890  -31.6440  134.9060 C.2   456  ALA456      0.2287
    110  O         19.7100  -31.7290  133.6800 O.2   456  ALA456     -0.2864
    111  CB        20.3720  -29.3790  135.8380 C.3   456  ALA456      0.0319
@<TRIPOS>BOND
     1     1     2    1
     2     7     9   ar
     3     7     6   ar
     4     9    11   ar
     5     2     3    1
     6     2     5    1
     7     3     4    2
     8     5     6    1
     9     6     8   ar
    10    11    12    1
    11    11    10   ar
    12    57    58    1
    13    57    56    1
    14   106   104   am
    15    48    47    2
    16     8    10   ar
    17    56    55    1
    18    45    46    1
    19    49    46    1
    20   110   109    2
    21    46    47    1
    22   104   105    2
    23   104   103    1
    24    55    54    1
    25    54    51    1
    26    98    97    2
    27    13    14    1
    28    18    17    1
    29   103   100    1
    30   109   108    1
    31   107   108    1
    32   107   101   am
    33   100   101    1
    34   100    99    1
    35    15    14    1
    36    15    16    2
    37    27    25    1
    38   108   111    1
    39    14    17    1
    40    51    50    1
    41    51    52    1
    42   101   102    2
    43    97    99   am
    44    97    96    1
    45    93    90    1
    46    93    94    1
    47    17    19    1
    48    53    52    2
    49    95    96    1
    50    95    91   am
    51    26    24    1
    52    90    91    1
    53    90    89    1
    54    24    25    1
    55    24    21    1
    56    91    92    2
    57    42    43    1
    58    42    41    1
    59    43    44    1
    60    22    21    1
    61    22    23    2
    62    21    20    1
    63    70    69    2
    64    41    40    1
    65    62    61    2
    66    40    37    1
    67    69    68    1
    68    71    72    1
    69    71    68    1
    70    71    73    1
    71    67    68    1
    72    85    84    2
    73    61    60    1
    74    37    38    1
    75    37    36    1
    76    38    39    2
    77    59    60    1
    78    84    83    1
    79    87    86    1
    80    81    80    1
    81    34    33    1
    82    66    64   am
    83    65    64    2
    84    31    30    2
    85    64    63    1
    86    60    63    1
    87    33    32    1
    88    33    35    1
    89    80    79    1
    90    32    29    1
    91    28    29    1
    92    79    78    1
    93    86    83    1
    94    86    88    1
    95    83    82    1
    96    30    29    1
    97    78    75    1
    98    75    74    1
    99    75    76    1
   100    77    76    2
