@<TRIPOS>MOLECULE
tmp/2hs0A00.pdb
 199 191 0 0 0
SMALL
GASTEIGER

@<TRIPOS>ATOM
      1  N         30.5780  -44.7390  138.9270 N.3   105  PHE105     -0.1227
      2  CA        29.6340  -44.6880  140.0480 C.3   105  PHE105      0.1736
      3  C         28.2450  -44.5330  139.4770 C.2   105  PHE105      0.2595
      4  O         27.9980  -43.6990  138.5880 O.2   105  PHE105     -0.2718
      5  CB        29.8760  -43.4820  140.9460 C.3   105  PHE105      0.0547
      6  CG        30.9650  -43.6950  141.9680 C.ar  105  PHE105     -0.0202
      7  CD1       30.6530  -43.8820  143.3070 C.ar  105  PHE105     -0.0042
      8  CD2       32.3060  -43.7160  141.5810 C.ar  105  PHE105     -0.0042
      9  CE1       31.6440  -44.1290  144.2110 C.ar  105  PHE105     -0.0003
     10  CE2       33.3200  -43.9220  142.5090 C.ar  105  PHE105     -0.0003
     11  CZ        32.9730  -44.1590  143.8130 C.ar  105  PHE105     -0.0000
     12  N         27.3120  -45.3480  139.9480 N.am  106  ASP106     -0.1974
     13  CA        25.9080  -45.1440  139.5550 C.3   106  ASP106      0.1709
     14  C         25.1510  -44.7790  140.8260 C.2   106  ASP106      0.2293
     15  O         25.1370  -45.5340  141.7840 O.2   106  ASP106     -0.2864
     16  CB        25.3360  -46.4290  138.9350 C.3   106  ASP106      0.1436
     17  CG        25.5910  -47.6590  139.7910 C.2   106  ASP106      0.3671
     18  OD1       26.7660  -47.8990  140.2140 O.co2 106  ASP106     -0.2456
     19  OD2       24.5910  -48.3590  140.0650 O.co2 106  ASP106     -0.2456
     20  N         21.5320  -44.5990  142.2150 N.3   108  LEU108     -0.1245
     21  CA        20.2000  -45.0140  141.7290 C.3   108  LEU108      0.1561
     22  C         19.1260  -44.6780  142.7490 C.2   108  LEU108      0.2260
     23  O         19.3880  -44.7150  143.9500 O.2   108  LEU108     -0.2867
     24  CB        20.1590  -46.5230  141.4120 C.3   108  LEU108      0.0270
     25  CG        21.2990  -47.0640  140.5190 C.3   108  LEU108      0.0019
     26  CD1       21.1830  -48.5570  140.2540 C.3   108  LEU108      0.0001
     27  CD2       21.4530  -46.3160  139.1940 C.3   108  LEU108      0.0001
     28  N         33.0260  -50.6130  138.0400 N.3   132  THR132     -0.1203
     29  CA        32.0850  -49.8330  138.8620 C.3   132  THR132      0.1994
     30  C         32.4840  -49.9640  140.3220 C.2   132  THR132      0.2618
     31  O         32.5730  -51.0560  140.8780 O.2   132  THR132     -0.2717
     32  CB        30.6390  -50.2820  138.7600 C.3   132  THR132      0.1784
     33  OG1       30.4060  -50.6910  137.4130 O.3   132  THR132     -0.2211
     34  CG2       29.6950  -49.1300  139.1350 C.3   132  THR132      0.0376
     35  N         32.6940  -48.8220  140.9340 N.am  133  VAL133     -0.1965
     36  CA        33.4350  -48.7640  142.1650 C.3   133  VAL133      0.1727
     37  C         32.5830  -48.2960  143.3390 C.2   133  VAL133      0.2617
     38  O         33.0900  -48.2870  144.4530 O.2   133  VAL133     -0.2715
     39  CB        34.6470  -47.8540  141.8950 C.3   133  VAL133      0.0290
     40  CG1       35.1640  -47.3160  143.1290 C.3   133  VAL133      0.0023
     41  CG2       35.7480  -48.5990  141.1620 C.3   133  VAL133      0.0023
     42  N         31.3220  -47.9170  143.1190 N.am  134  GLY134     -0.1940
     43  CA        30.4520  -47.4330  144.2060 C.3   134  GLY134      0.2014
     44  C         29.2170  -46.7580  143.6460 C.2   134  GLY134      0.2639
     45  O         29.0290  -46.7290  142.4360 O.2   134  GLY134     -0.2714
     46  N         28.3320  -46.2190  144.4650 N.am  135  GLY135     -0.1939
     47  CA        27.2600  -45.4690  143.8130 C.3   135  GLY135      0.2014
     48  C         26.2540  -45.4410  144.9290 C.2   135  GLY135      0.2639
     49  O         26.6830  -45.3980  146.0640 O.2   135  GLY135     -0.2714
     50  N         24.9480  -45.4810  144.6560 N.am  136  GLU136     -0.1963
     51  CA        23.9790  -45.2720  145.7390 C.3   136  GLU136      0.1733
     52  C         22.8490  -46.1410  145.3150 C.2   136  GLU136      0.2616
     53  O         22.6850  -46.3300  144.1390 O.2   136  GLU136     -0.2715
     54  CB        23.4260  -43.8280  145.8350 C.3   136  GLU136      0.0429
     55  CG        24.4220  -42.7140  146.1700 C.3   136  GLU136      0.1163
     56  CD        23.6540  -41.4640  146.6100 C.2   136  GLU136      0.3649
     57  OE1       23.4330  -40.5420  145.7970 O.co2 136  GLU136     -0.2457
     58  OE2       23.1950  -41.3560  147.7680 O.co2 136  GLU136     -0.2457
     59  N         22.0370  -46.6050  146.2470 N.am  137  LEU137     -0.1963
     60  CA        20.9280  -47.4760  145.9130 C.3   137  LEU137      0.1728
     61  C         19.8030  -47.1000  146.8620 C.2   137  LEU137      0.2616
     62  O         19.6400  -47.6680  147.9450 O.2   137  LEU137     -0.2715
     63  CB        21.3720  -48.9420  146.0450 C.3   137  LEU137      0.0311
     64  CG        20.5300  -49.9830  145.2900 C.3   137  LEU137      0.0022
     65  CD1       20.5920  -49.8450  143.7570 C.3   137  LEU137      0.0001
     66  CD2       20.8050  -51.4030  145.7650 C.3   137  LEU137      0.0001
     67  N         19.0700  -46.0720  146.4610 N.am  138  ARG138     -0.1977
     68  CA        18.1880  -45.3470  147.3540 C.3   138  ARG138      0.1597
     69  C         16.7800  -45.8250  146.9820 C.2   138  ARG138      0.2287
     70  O         16.3460  -45.6100  145.8560 O.2   138  ARG138     -0.2864
     71  CB        18.4170  -43.8280  147.1590 C.3   138  ARG138      0.0334
     72  CG        18.3050  -42.9510  148.4210 C.3   138  ARG138      0.0492
     73  CD        19.5620  -42.2250  149.0350 C.3   138  ARG138      0.2205
     74  NE        20.2140  -43.1560  149.9240 N.pl3 138  ARG138     -0.0865
     75  CZ        21.1900  -42.9480  150.7960 C.cat 138  ARG138      0.5346
     76  NH1       21.8050  -41.7820  151.0590 N.pl3 138  ARG138      0.1354
     77  NH2       21.5710  -44.0870  151.3390 N.pl3 138  ARG138      0.1354
     78  N         19.0270  -52.1380  151.7650 N.3   344  VAL344     -0.1245
     79  CA        19.4440  -52.9010  150.6140 C.3   344  VAL344      0.1561
     80  C         20.8750  -53.3480  150.9430 C.2   344  VAL344      0.2260
     81  O         21.4870  -52.9040  151.9070 O.2   344  VAL344     -0.2867
     82  CB        19.4730  -51.9540  149.4010 C.3   344  VAL344      0.0252
     83  CG1       18.0780  -51.4460  149.0540 C.3   344  VAL344      0.0019
     84  CG2       20.4140  -50.7890  149.7040 C.3   344  VAL344      0.0019
     85  N         24.1710  -53.3620  148.5530 N.3   346  ALA346     -0.1245
     86  CA        24.6900  -53.1840  147.2010 C.3   346  ALA346      0.1562
     87  C         25.7390  -54.2450  146.8900 C.2   346  ALA346      0.2260
     88  O         25.9540  -54.5900  145.7220 O.2   346  ALA346     -0.2867
     89  CB        25.2150  -51.7990  146.9710 C.3   346  ALA346      0.0290
     90  N         24.8940  -56.4220  143.0860 N.3   350  PHE350     -0.1241
     91  CA        25.7690  -56.4980  141.9270 C.3   350  PHE350      0.1605
     92  C         26.4520  -57.8320  141.6350 C.2   350  PHE350      0.2264
     93  O         27.2850  -57.9190  140.7240 O.2   350  PHE350     -0.2867
     94  CB        26.8270  -55.4050  142.0370 C.3   350  PHE350      0.0534
     95  CG        26.3890  -54.1200  141.4360 C.ar  350  PHE350     -0.0203
     96  CD1       26.8000  -53.7720  140.1680 C.ar  350  PHE350     -0.0042
     97  CD2       25.5270  -53.2820  142.1240 C.ar  350  PHE350     -0.0042
     98  CE1       26.3910  -52.5850  139.5940 C.ar  350  PHE350     -0.0003
     99  CE2       25.1010  -52.0960  141.5420 C.ar  350  PHE350     -0.0003
    100  CZ        25.5370  -51.7440  140.2720 C.ar  350  PHE350     -0.0000
    101  N         35.1100  -52.0900  147.7590 N.3   362  PRO362     -0.2102
    102  CA        33.8390  -51.3850  147.9580 C.3   362  PRO362      0.1504
    103  C         32.9420  -52.0230  149.0230 C.2   362  PRO362      0.2576
    104  O         32.9520  -53.2440  149.2660 O.2   362  PRO362     -0.2718
    105  CB        33.1180  -51.4620  146.5940 C.3   362  PRO362      0.0282
    106  CG        34.1460  -51.8740  145.6230 C.3   362  PRO362      0.0208
    107  CD        35.2870  -52.5690  146.3780 C.3   362  PRO362      0.0893
    108  N         32.1620  -51.1400  149.6340 N.am  363  GLY363     -0.1957
    109  CA        31.1490  -51.5340  150.5690 C.3   363  GLY363      0.1869
    110  C         31.1910  -50.6510  151.7750 C.2   363  GLY363      0.2309
    111  O         30.2540  -50.6840  152.5380 O.2   363  GLY363     -0.2863
    112  N         31.3680  -47.0350  152.2810 N.3   365  GLY365     -0.1225
    113  CA        31.6020  -45.6340  151.9320 C.3   365  GLY365      0.1811
    114  C         32.4940  -45.2820  150.7370 C.2   365  GLY365      0.2280
    115  O         32.3060  -45.7850  149.6270 O.2   365  GLY365     -0.2866
    116  N         33.1880  -40.4790  146.1300 N.3   380  VAL380     -0.1231
    117  CA        32.0050  -40.9400  146.8060 C.3   380  VAL380      0.1692
    118  C         30.8460  -40.1970  146.2150 C.2   380  VAL380      0.2593
    119  O         31.0640  -39.0740  145.8230 O.2   380  VAL380     -0.2718
    120  CB        31.7900  -40.4030  148.2520 C.3   380  VAL380      0.0266
    121  CG1       31.8270  -41.5560  149.3220 C.3   380  VAL380      0.0020
    122  CG2       32.3980  -39.0960  148.5620 C.3   380  VAL380      0.0020
    123  N         29.6510  -40.7870  146.2320 N.am  381  THR381     -0.1939
    124  CA        28.3950  -40.1460  145.8070 C.3   381  THR381      0.2028
    125  C         27.4570  -40.1870  146.9740 C.2   381  THR381      0.2642
    126  O         27.4310  -41.1940  147.6970 O.2   381  THR381     -0.2714
    127  CB        27.7810  -40.7880  144.5460 C.3   381  THR381      0.1808
    128  OG1       27.6080  -42.2070  144.7120 O.3   381  THR381     -0.2208
    129  CG2       28.8050  -40.6380  143.3720 C.3   381  THR381      0.0379
    130  N         26.7050  -39.1020  147.1670 N.am  382  HIS382     -0.1973
    131  CA        25.7650  -39.0560  148.2540 C.3   382  HIS382      0.1656
    132  C         24.5700  -38.1260  147.9740 C.2   382  HIS382      0.2291
    133  O         24.6760  -37.1450  147.2650 O.2   382  HIS382     -0.2864
    134  CB        26.5710  -38.5720  149.4510 C.3   382  HIS382      0.0771
    135  CG        25.8440  -38.6360  150.7650 C.ar  382  HIS382      0.0820
    136  ND1       25.2660  -39.7850  151.2730 N.ar  382  HIS382     -0.2267
    137  CD2       25.5720  -37.6510  151.6530 C.ar  382  HIS382      0.1154
    138  CE1       24.7230  -39.5200  152.4440 C.ar  382  HIS382      0.1986
    139  NE2       24.8510  -38.2180  152.6680 N.ar  382  HIS382     -0.2212
    140  N         32.5280  -38.2930  154.6100 N.3   406  LYS406     -0.1245
    141  CA        32.8690  -39.5550  153.9400 C.3   406  LYS406      0.1561
    142  C         34.2630  -39.4840  153.3550 C.2   406  LYS406      0.2260
    143  O         34.9930  -40.4390  153.4040 O.2   406  LYS406     -0.2867
    144  CB        31.8690  -39.7950  152.8290 C.3   406  LYS406      0.0271
    145  CG        30.4110  -39.9470  153.3540 C.3   406  LYS406      0.0035
    146  CD        29.5060  -40.6860  152.3880 C.3   406  LYS406      0.0206
    147  CE        28.0440  -40.6060  152.9130 C.3   406  LYS406      0.1093
    148  NZ        27.5140  -41.7870  153.6030 N.3   406  LYS406     -0.1314
    149  N         31.2180  -43.1570  158.0250 N.3   524  SER524     -0.1202
    150  CA        30.3230  -42.0430  158.0900 C.3   524  SER524      0.2020
    151  C         29.0910  -42.3220  157.2410 C.2   524  SER524      0.2619
    152  O         29.0470  -42.0140  156.0610 O.2   524  SER524     -0.2717
    153  CB        31.0940  -40.8320  157.6130 C.3   524  SER524      0.2103
    154  OG        30.3860  -39.6540  157.9470 O.3   524  SER524     -0.2182
    155  N         28.1100  -42.9810  157.8250 N.am  525  SER525     -0.1937
    156  CA        26.8980  -43.3860  157.1470 C.3   525  SER525      0.2055
    157  C         25.6690  -42.7120  157.7740 C.2   525  SER525      0.2644
    158  O         25.6410  -42.3780  158.9670 O.2   525  SER525     -0.2714
    159  CB        26.7950  -44.9080  157.2620 C.3   525  SER525      0.2130
    160  OG        25.4570  -45.3450  157.1310 O.3   525  SER525     -0.2179
    161  N         24.6120  -42.4760  157.0020 N.am  526  SER526     -0.1935
    162  CA        23.5060  -41.6840  157.5780 C.3   526  SER526      0.2055
    163  C         22.5970  -42.4100  158.5890 C.2   526  SER526      0.2642
    164  O         21.7760  -41.7550  159.2360 O.2   526  SER526     -0.2714
    165  CB        22.6260  -41.1270  156.4830 C.3   526  SER526      0.2130
    166  OG        22.1110  -42.2480  155.7800 O.3   526  SER526     -0.2179
    167  N         22.7310  -43.7280  158.7450 N.am  527  GLN527     -0.1976
    168  CA        22.0340  -44.5080  159.7590 C.3   527  GLN527      0.1601
    169  C         23.1370  -45.3040  160.4760 C.2   527  GLN527      0.2287
    170  O         22.9670  -46.3990  161.0420 O.2   527  GLN527     -0.2864
    171  CB        21.0550  -45.4130  159.0240 C.3   527  GLN527      0.0394
    172  CG        21.8660  -46.3750  158.1300 C.3   527  GLN527      0.0908
    173  CD        21.0280  -46.9790  157.0110 C.2   527  GLN527      0.2608
    174  OE1       21.1290  -46.5840  155.8360 O.2   527  GLN527     -0.2717
    175  NE2       20.1640  -47.9290  157.3850 N.am  527  GLN527     -0.0878
    176  N         25.2030  -49.8470  157.8820 N.3   530  THR530     -0.1218
    177  CA        24.3100  -50.4650  156.8960 C.3   530  THR530      0.1862
    178  C         24.5370  -51.9660  156.8030 C.2   530  THR530      0.2287
    179  O         25.4330  -52.5490  157.4210 O.2   530  THR530     -0.2866
    180  CB        24.4550  -49.8920  155.4230 C.3   530  THR530      0.1770
    181  OG1       25.7940  -50.0920  154.9540 O.3   530  THR530     -0.2211
    182  CG2       24.1980  -48.4190  155.3130 C.3   530  THR530      0.0375
    183  N         25.1900  -53.2360  153.8830 N.3   532  THR532     -0.1203
    184  CA        26.3500  -53.3790  153.0110 C.3   532  THR532      0.1994
    185  C         27.6370  -53.4130  153.8580 C.2   532  THR532      0.2617
    186  O         28.5510  -54.1490  153.5170 O.2   532  THR532     -0.2717
    187  CB        26.4230  -52.2630  151.9330 C.3   532  THR532      0.1784
    188  OG1       25.1360  -52.0110  151.3430 O.3   532  THR532     -0.2211
    189  CG2       27.4410  -52.6100  150.8780 C.3   532  THR532      0.0376
    190  N         27.7200  -52.6620  154.9580 N.am  533  HIS533     -0.1975
    191  CA        28.9570  -52.6550  155.7670 C.3   533  HIS533      0.1656
    192  C         29.1000  -53.9660  156.5140 C.2   533  HIS533      0.2291
    193  O         30.1480  -54.5980  156.4940 O.2   533  HIS533     -0.2864
    194  CB        28.9620  -51.5640  156.8360 C.3   533  HIS533      0.0771
    195  CG        28.7740  -50.1810  156.2970 C.ar  533  HIS533      0.0820
    196  ND1       27.9870  -49.2460  156.9200 N.ar  533  HIS533     -0.2267
    197  CD2       29.1950  -49.6010  155.1490 C.ar  533  HIS533      0.1154
    198  CE1       28.0000  -48.1220  156.2290 C.ar  533  HIS533      0.1986
    199  NE2       28.6990  -48.3230  155.1300 N.ar  533  HIS533     -0.2212
@<TRIPOS>BOND
     1    33    32    1
     2    28    29    1
     3     4     3    2
     4    32    29    1
     5    32    34    1
     6    29    30    1
     7     1     2    1
     8    16    13    1
     9    16    17    1
    10    27    25    1
    11     3    12   am
    12     3     2    1
    13    13    12    1
    14    13    14    1
    15    98    96   ar
    16    98   100   ar
    17    17    19   ar
    18    17    18   ar
    19     2     5    1
    20    96    95   ar
    21    26    25    1
    22   100    99   ar
    23    30    31    2
    24    30    35   am
    25    25    24    1
    26    93    92    2
    27    14    15    2
    28    35    36    1
    29     5     6    1
    30    41    39    1
    31    24    21    1
    32    95    94    1
    33    95    97   ar
    34    99    97   ar
    35     8     6   ar
    36     8    10   ar
    37    92    91    1
    38    21    20    1
    39    21    22    1
    40    39    36    1
    41    39    40    1
    42    91    94    1
    43    91    90    1
    44     6     7   ar
    45    36    37    1
    46    45    44    2
    47    10    11   ar
    48    22    23    2
    49    42    37   am
    50    42    43    1
    51     7     9   ar
    52    37    38    2
    53   129   127    1
    54    44    43    1
    55    44    46   am
    56    65    64    1
    57    47    46    1
    58    47    48    1
    59    11     9   ar
    60    53    52    2
    61   127   128    1
    62   127   124    1
    63    50    48   am
    64    50    51    1
    65    48    49    2
    66    64    66    1
    67    64    63    1
    68    52    51    1
    69    52    59   am
    70   106   107    1
    71   106   105    1
    72    88    87    2
    73    51    54    1
    74    57    56   ar
    75   124   123    1
    76   124   125    1
    77   119   118    2
    78    54    55    1
    79    70    69    2
    80    60    63    1
    81    60    59    1
    82    60    61    1
    83   116   117    1
    84    55    56    1
    85   118   123   am
    86   118   117    1
    87   107   101    1
    88    67    61   am
    89    67    68    1
    90   105   102    1
    91    56    58   ar
    92   117   120    1
    93    61    62    2
    94    87    86    1
    95    89    86    1
    96   125   130   am
    97   125   126    2
    98    69    68    1
    99    71    68    1
   100    71    72    1
   101   130   131    1
   102    86    85    1
   103   133   132    2
   104   101   102    1
   105   102   103    1
   106   132   131    1
   107   120   122    1
   108   120   121    1
   109   131   134    1
   110    72    73    1
   111   103   104    2
   112   103   108   am
   113    73    74    1
   114    83    82    1
   115    82    84    1
   116    82    79    1
   117   134   135    1
   118   115   114    2
   119   108   109    1
   120    74    75    2
   121   109   110    1
   122    79    80    1
   123    79    78    1
   124   114   113    1
   125   135   136   ar
   126   135   137   ar
   127    75    76    1
   128    75    77    1
   129   189   187    1
   130    80    81    2
   131   136   138   ar
   132   188   187    1
   133   137   139   ar
   134   110   111    2
   135   113   112    1
   136   187   184    1
   137   146   147    1
   138   146   145    1
   139   138   139   ar
   140   144   145    1
   141   144   141    1
   142   147   148    1
   143   184   185    1
   144   184   183    1
   145   142   143    2
   146   142   141    1
   147   186   185    2
   148   185   190   am
   149   141   140    1
   150   181   180    1
   151   190   191    1
   152   199   197   ar
   153   199   198   ar
   154   197   195   ar
   155   182   180    1
   156   180   177    1
   157   191   192    1
   158   191   194    1
   159   166   165    1
   160   174   173    2
   161   152   151    2
   162   198   196   ar
   163   195   194    1
   164   195   196   ar
   165   165   162    1
   166   193   192    2
   167   178   177    1
   168   178   179    2
   169   177   176    1
   170   161   162    1
   171   161   157   am
   172   173   175   am
   173   173   172    1
   174   160   159    1
   175   156   159    1
   176   156   157    1
   177   156   155    1
   178   151   155   am
   179   151   150    1
   180   162   163    1
   181   153   154    1
   182   153   150    1
   183   157   158    2
   184   149   150    1
   185   172   171    1
   186   163   167   am
   187   163   164    2
   188   167   168    1
   189   171   168    1
   190   168   169    1
   191   169   170    2
