@<TRIPOS>MOLECULE
tmp/2hs4A00.pdb
 212 195 0 0 0
SMALL
GASTEIGER

@<TRIPOS>ATOM
      1  N         19.5210  -29.0830  129.6680 N.3    31  HIS31      -0.1226
      2  CA        20.6270  -30.0220  129.7550 C.3    31  HIS31       0.1752
      3  C         21.9480  -29.4650  129.2330 C.2    31  HIS31       0.2596
      4  O         23.0030  -29.7070  129.8210 O.2    31  HIS31      -0.2718
      5  CB        20.3140  -31.3240  129.0060 C.3    31  HIS31       0.0759
      6  CG        21.4490  -32.3020  129.0300 C.ar   31  HIS31       0.0818
      7  ND1       21.7560  -33.0560  130.1420 N.ar   31  HIS31      -0.2268
      8  CD2       22.4080  -32.5760  128.1140 C.ar   31  HIS31       0.1154
      9  CE1       22.8570  -33.7490  129.9120 C.ar   31  HIS31       0.1986
     10  NE2       23.2730  -33.4750  128.6890 N.ar   31  HIS31      -0.2212
     11  N         21.8970  -28.7360  128.1220 N.am   32  CYS32      -0.1970
     12  CA        23.1120  -28.1710  127.5390 C.3    32  CYS32       0.1712
     13  C         23.3550  -26.7020  127.9060 C.2    32  CYS32       0.2296
     14  O         24.5000  -26.2670  128.0190 O.2    32  CYS32      -0.2864
     15  CB        23.0810  -28.3380  126.0130 C.3    32  CYS32       0.0983
     16  SG        23.6400  -29.9670  125.4030 S.3    32  CYS32      -0.0798
     17  N         21.8970  -24.9330  130.8170 N.3    34  TYR34      -0.1241
     18  CA        21.9870  -24.6490  132.2560 C.3    34  TYR34       0.1605
     19  C         21.4470  -23.2650  132.6370 C.2    34  TYR34       0.2264
     20  O         22.0180  -22.5940  133.4960 O.2    34  TYR34      -0.2867
     21  CB        23.4420  -24.7450  132.7300 C.3    34  TYR34       0.0534
     22  CG        23.9620  -26.1480  132.9870 C.ar   34  TYR34      -0.0201
     23  CD1       24.0620  -27.0840  131.9590 C.ar   34  TYR34      -0.0009
     24  CD2       24.3860  -26.5280  134.2640 C.ar   34  TYR34      -0.0009
     25  CE1       24.5740  -28.3580  132.2000 C.ar   34  TYR34       0.0417
     26  CE2       24.8940  -27.7950  134.5100 C.ar   34  TYR34       0.0417
     27  CZ        24.9860  -28.7020  133.4770 C.ar   34  TYR34       0.1957
     28  OH        25.4930  -29.9530  133.7210 O.3    34  TYR34      -0.2866
     29  N         26.0180  -21.8640  140.2330 N.3    41  ILE41      -0.1245
     30  CA        27.2930  -22.5470  140.0510 C.3    41  ILE41       0.1561
     31  C         28.4560  -21.5680  140.0950 C.2    41  ILE41       0.2260
     32  O         29.5390  -21.8970  140.5820 O.2    41  ILE41      -0.2867
     33  CB        27.3200  -23.3060  138.6950 C.3    41  ILE41       0.0252
     34  CG1       26.3450  -24.4910  138.7480 C.3    41  ILE41       0.0019
     35  CG2       28.7460  -23.7580  138.3630 C.3    41  ILE41       0.0019
     36  CD1       26.0600  -25.1260  137.4060 C.3    41  ILE41       0.0001
     37  N         29.7520  -20.6800  143.4750 N.3    44  LEU44      -0.1245
     38  CA        30.4470  -21.7610  144.1710 C.3    44  LEU44       0.1561
     39  C         31.9740  -21.6120  144.0780 C.2    44  LEU44       0.2260
     40  O         32.5050  -21.1370  143.0660 O.2    44  LEU44      -0.2867
     41  CB        30.0460  -23.1240  143.5780 C.3    44  LEU44       0.0270
     42  CG        28.5860  -23.6150  143.5200 C.3    44  LEU44       0.0019
     43  CD1       28.5190  -24.9420  142.7490 C.3    44  LEU44       0.0001
     44  CD2       28.0180  -23.7760  144.9300 C.3    44  LEU44       0.0001
     45  N         35.6600  -22.6970  143.3810 N.3    46  LYS46      -0.1245
     46  CA        36.2400  -23.7090  142.4950 C.3    46  LYS46       0.1561
     47  C         37.7020  -24.0060  142.7980 C.2    46  LYS46       0.2260
     48  O         38.2990  -23.4030  143.6920 O.2    46  LYS46      -0.2867
     49  CB        36.1590  -23.2650  141.0370 C.3    46  LYS46       0.0271
     50  CG        34.8740  -22.5750  140.6320 C.3    46  LYS46       0.0035
     51  CD        33.6790  -23.4980  140.6310 C.3    46  LYS46       0.0206
     52  CE        32.5310  -22.8280  139.9190 C.3    46  LYS46       0.1093
     53  NZ        32.2880  -21.4740  140.4810 N.3    46  LYS46      -0.1314
     54  N         39.4670  -26.9460  135.3910 N.3    50  GLU50      -0.1245
     55  CA        38.1370  -27.4260  135.0690 C.3    50  GLU50       0.1567
     56  C         37.9020  -27.4580  133.5640 C.2    50  GLU50       0.2260
     57  O         37.6670  -26.4290  132.9320 O.2    50  GLU50      -0.2867
     58  CB        37.0890  -26.5570  135.7670 C.3    50  GLU50       0.0388
     59  CG        37.3370  -25.0660  135.6350 C.3    50  GLU50       0.1160
     60  CD        36.6270  -24.2670  136.7100 C.2    50  GLU50       0.3649
     61  OE1       36.9310  -24.4800  137.9050 O.co2  50  GLU50      -0.2457
     62  OE2       35.7680  -23.4300  136.3630 O.co2  50  GLU50      -0.2457
     63  N         35.6290  -29.9660  131.4630 N.3    52  ASN52      -0.1225
     64  CA        34.6740  -31.0750  131.3560 C.3    52  ASN52       0.1785
     65  C         35.0870  -32.3150  132.1570 C.2    52  ASN52       0.2597
     66  O         34.7740  -33.4470  131.7810 O.2    52  ASN52      -0.2718
     67  CB        34.4170  -31.4500  129.8830 C.3    52  ASN52       0.1169
     68  CG        35.5380  -32.2730  129.2680 C.2    52  ASN52       0.2627
     69  OD1       36.6290  -31.7680  129.0000 O.2    52  ASN52      -0.2716
     70  ND2       35.2670  -33.5520  129.0340 N.am   52  ASN52      -0.0877
     71  N         35.7780  -32.0850  133.2730 N.am   53  ALA53      -0.1979
     72  CA        36.2370  -33.1590  134.1510 C.3    53  ALA53       0.1597
     73  C         36.7110  -32.6360  135.5060 C.2    53  ALA53       0.2287
     74  O         36.2620  -33.1050  136.5460 O.2    53  ALA53      -0.2864
     75  CB        37.3520  -33.9340  133.4870 C.3    53  ALA53       0.0319
     76  N         34.9440  -36.6240  137.8690 N.3    67  LYS67      -0.1245
     77  CA        33.7250  -35.9000  137.5230 C.3    67  LYS67       0.1561
     78  C         32.5010  -36.8010  137.6790 C.2    67  LYS67       0.2260
     79  O         32.5830  -38.0080  137.5020 O.2    67  LYS67      -0.2867
     80  CB        33.8450  -35.4000  136.0710 C.3    67  LYS67       0.0271
     81  CG        32.5460  -35.0670  135.3520 C.3    67  LYS67       0.0035
     82  CD        31.7880  -33.9010  135.9580 C.3    67  LYS67       0.0206
     83  CE        30.6180  -33.5460  135.0520 C.3    67  LYS67       0.1093
     84  NZ        31.0670  -33.3650  133.6270 N.3    67  LYS67      -0.1314
     85  N         28.4430  -37.3360  136.4890 N.3    69  GLU69      -0.1245
     86  CA        27.3640  -36.9680  135.5910 C.3    69  GLU69       0.1567
     87  C         26.2220  -37.9030  135.9330 C.2    69  GLU69       0.2260
     88  O         26.3300  -38.7160  136.8610 O.2    69  GLU69      -0.2867
     89  CB        27.7650  -37.1350  134.1180 C.3    69  GLU69       0.0388
     90  CG        28.6160  -35.9910  133.5560 C.3    69  GLU69       0.1160
     91  CD        28.8210  -36.0800  132.0430 C.2    69  GLU69       0.3649
     92  OE1       29.2350  -37.1520  131.5510 O.co2  69  GLU69      -0.2457
     93  OE2       28.5770  -35.0740  131.3420 O.co2  69  GLU69      -0.2457
     94  N         34.4530  -38.3150  129.4060 N.3    93  ASP93      -0.1239
     95  CA        34.7620  -37.0070  129.9880 C.3    93  ASP93       0.1674
     96  C         36.1070  -37.0210  130.7090 C.2    93  ASP93       0.2266
     97  O         36.9220  -36.1240  130.5390 O.2    93  ASP93      -0.2867
     98  CB        33.6610  -36.5590  130.9600 C.3    93  ASP93       0.1410
     99  CG        32.5050  -35.8690  130.2570 C.2    93  ASP93       0.3668
    100  OD1       32.7590  -34.9910  129.4060 O.co2  93  ASP93      -0.2456
    101  OD2       31.3410  -36.1920  130.5640 O.co2  93  ASP93      -0.2456
    102  N         37.2670  -32.8130  123.4710 N.3   234  GLN234     -0.1231
    103  CA        35.9460  -32.8340  124.0760 C.3   234  GLN234      0.1698
    104  C         35.2670  -34.1030  123.6280 C.2   234  GLN234      0.2592
    105  O         35.3550  -34.4750  122.4640 O.2   234  GLN234     -0.2718
    106  CB        35.0940  -31.6370  123.6430 C.3   234  GLN234      0.0381
    107  CG        33.7260  -31.6610  124.3000 C.3   234  GLN234      0.0905
    108  CD        33.0410  -30.3230  124.2870 C.2   234  GLN234      0.2608
    109  OE1       33.6140  -29.3180  124.7140 O.2   234  GLN234     -0.2717
    110  NE2       31.7990  -30.2950  123.8090 N.am  234  GLN234     -0.0878
    111  N         34.6040  -34.7780  124.5600 N.am  235  ASP235     -0.1960
    112  CA        33.9070  -36.0080  124.2310 C.3   235  ASP235      0.1840
    113  C         32.5520  -35.6590  123.6280 C.2   235  ASP235      0.2622
    114  O         32.0350  -34.5620  123.8300 O.2   235  ASP235     -0.2715
    115  CB        33.7240  -36.8840  125.4870 C.3   235  ASP235      0.1450
    116  CG        32.6530  -36.3480  126.4460 C.2   235  ASP235      0.3671
    117  OD1       32.8750  -35.2840  127.0730 O.co2 235  ASP235     -0.2456
    118  OD2       31.5900  -37.0050  126.5700 O.co2 235  ASP235     -0.2456
    119  N         31.9930  -36.5820  122.8600 N.am  236  LEU236     -0.1963
    120  CA        30.6870  -36.3580  122.2740 C.3   236  LEU236      0.1728
    121  C         29.6350  -37.0800  123.1170 C.2   236  LEU236      0.2617
    122  O         29.8850  -38.1530  123.6760 O.2   236  LEU236     -0.2715
    123  CB        30.6410  -36.8500  120.8200 C.3   236  LEU236      0.0311
    124  CG        30.9810  -35.7940  119.7620 C.3   236  LEU236      0.0022
    125  CD1       32.4840  -35.6010  119.7100 C.3   236  LEU236      0.0001
    126  CD2       30.4580  -36.2180  118.4010 C.3   236  LEU236      0.0001
    127  N         28.4660  -36.4630  123.2190 N.am  237  GLY237     -0.1940
    128  CA        27.3800  -37.0330  123.9860 C.3   237  GLY237      0.2014
    129  C         26.1060  -36.3360  123.5670 C.2   237  GLY237      0.2638
    130  O         25.5370  -36.6440  122.5210 O.2   237  GLY237     -0.2714
    131  N         25.6600  -35.3850  124.3770 N.am  238  ALA238     -0.1977
    132  CA        24.4580  -34.6380  124.0620 C.3   238  ALA238      0.1597
    133  C         24.8010  -33.5340  123.0570 C.2   238  ALA238      0.2287
    134  O         25.6780  -32.7050  123.3060 O.2   238  ALA238     -0.2864
    135  CB        23.8880  -34.0470  125.3240 C.3   238  ALA238      0.0319
    136  N         27.2160  -29.7610  119.3750 N.3   243  SER243     -0.1217
    137  CA        27.6470  -29.4060  120.7140 C.3   243  SER243      0.1889
    138  C         29.1710  -29.3800  120.8500 C.2   243  SER243      0.2288
    139  O         29.7400  -28.3850  121.2820 O.2   243  SER243     -0.2866
    140  CB        27.0520  -30.3980  121.7130 C.3   243  SER243      0.2089
    141  OG        27.6210  -30.2390  122.9980 O.3   243  SER243     -0.2183
    142  N         31.3950  -25.8370  120.9700 N.3   247  GLU247     -0.1245
    143  CA        31.8920  -25.5920  122.3190 C.3   247  GLU247      0.1567
    144  C         33.4070  -25.5240  122.4260 C.2   247  GLU247      0.2260
    145  O         33.9350  -24.8650  123.3130 O.2   247  GLU247     -0.2867
    146  CB        31.3290  -26.6350  123.2950 C.3   247  GLU247      0.0388
    147  CG        29.8130  -26.5490  123.4780 C.3   247  GLU247      0.1160
    148  CD        29.2690  -27.5720  124.4650 C.2   247  GLU247      0.3649
    149  OE1       29.6350  -28.7660  124.3630 O.co2 247  GLU247     -0.2457
    150  OE2       28.4620  -27.1850  125.3380 O.co2 247  GLU247     -0.2457
    151  N         34.7300  -21.6160  123.6920 N.3   251  LYS251     -0.1245
    152  CA        35.6240  -21.5590  124.8410 C.3   251  LYS251      0.1561
    153  C         36.8870  -20.7850  124.5080 C.2   251  LYS251      0.2260
    154  O         37.3430  -19.9550  125.2920 O.2   251  LYS251     -0.2867
    155  CB        36.0150  -22.9710  125.2810 C.3   251  LYS251      0.0271
    156  CG        34.8740  -23.8130  125.8290 C.3   251  LYS251      0.0035
    157  CD        35.3600  -25.2250  126.0880 C.3   251  LYS251      0.0206
    158  CE        34.2540  -26.1500  126.5630 C.3   251  LYS251      0.1093
    159  NZ        34.7400  -27.5590  126.6490 N.3   251  LYS251     -0.1314
    160  N         30.0790  -32.6480  142.2380 N.3   441  ASN441     -0.1240
    161  CA        28.7460  -32.9010  142.7470 C.3   441  ASN441      0.1653
    162  C         27.7300  -32.9740  141.6320 C.2   441  ASN441      0.2266
    163  O         27.9630  -32.4580  140.5400 O.2   441  ASN441     -0.2867
    164  CB        28.3640  -31.7960  143.7350 C.3   441  ASN441      0.1155
    165  CG        28.3200  -30.4240  143.0840 C.2   441  ASN441      0.2627
    166  OD1       27.3390  -30.0630  142.4270 O.2   441  ASN441     -0.2716
    167  ND2       29.3920  -29.6560  143.2540 N.am  441  ASN441     -0.0877
    168  N         23.6360  -32.2790  141.0530 N.3   443  VAL443     -0.1245
    169  CA        22.3800  -31.7660  141.5700 C.3   443  VAL443      0.1561
    170  C         21.2240  -32.4450  140.8500 C.2   443  VAL443      0.2260
    171  O         21.0860  -32.3230  139.6350 O.2   443  VAL443     -0.2867
    172  CB        22.2780  -30.2520  141.3600 C.3   443  VAL443      0.0252
    173  CG1       20.9580  -29.7310  141.9280 C.3   443  VAL443      0.0019
    174  CG2       23.4640  -29.5630  142.0230 C.3   443  VAL443      0.0019
    175  N         21.8780  -25.0860  146.3060 N.3   459  MET459     -0.1245
    176  CA        23.0830  -24.3460  145.9390 C.3   459  MET459      0.1570
    177  C         23.6580  -23.4970  147.0600 C.2   459  MET459      0.2261
    178  O         24.8740  -23.3520  147.1580 O.2   459  MET459     -0.2867
    179  CB        22.8180  -23.4600  144.7190 C.3   459  MET459      0.0387
    180  CG        22.0530  -24.1590  143.6000 C.3   459  MET459      0.0595
    181  SD        22.6920  -25.7940  143.2320 S.3   459  MET459     -0.1393
    182  CE        24.3340  -25.3850  142.7070 C.3   459  MET459      0.0692
    183  N         34.9350  -26.7590  145.0650 N.3   473  VAL473     -0.1245
    184  CA        34.2690  -27.5810  144.0580 C.3   473  VAL473      0.1561
    185  C         35.0780  -27.6270  142.7710 C.2   473  VAL473      0.2260
    186  O         35.2660  -26.6010  142.1250 O.2   473  VAL473     -0.2867
    187  CB        32.8770  -27.0140  143.7070 C.3   473  VAL473      0.0252
    188  CG1       32.2390  -27.8450  142.6130 C.3   473  VAL473      0.0019
    189  CG2       31.9990  -26.9860  144.9450 C.3   473  VAL473      0.0019
    190  N         34.2840  -29.7270  140.0470 N.3   475  SER475     -0.1202
    191  CA        33.4040  -29.9330  138.8990 C.3   475  SER475      0.2023
    192  C         32.0180  -30.3820  139.3400 C.2   475  SER475      0.2658
    193  O         31.7280  -30.4520  140.5340 O.2   475  SER475     -0.2713
    194  CB        33.9910  -30.9970  137.9710 C.3   475  SER475      0.2104
    195  OG        33.9210  -32.2770  138.5790 O.3   475  SER475     -0.2182
    196  N         31.1670  -30.6950  138.3710 N.am  476  GLY476     -0.1718
    197  CA        29.8370  -31.1410  138.7110 C.2   476  GLY476      0.1480
    198  C         28.9060  -31.3620  137.5420 C.2   476  GLY476      0.2820
    199  O         29.3190  -31.3890  136.3780 O.2   476  GLY476     -0.2669
    200  N         27.6280  -31.5140  137.8660 N.am  477  ASN477     -0.1923
    201  CA        26.5900  -31.7500  136.8760 C.3   477  ASN477      0.1822
    202  C         25.2820  -31.2810  137.4890 C.2   477  ASN477      0.2621
    203  O         25.1870  -31.1460  138.7070 O.2   477  ASN477     -0.2715
    204  CB        26.5120  -33.2490  136.5610 C.3   477  ASN477      0.1195
    205  CG        25.4180  -33.5900  135.5610 C.2   477  ASN477      0.2630
    206  OD1       24.4290  -34.2470  135.8970 O.2   477  ASN477     -0.2716
    207  ND2       25.5910  -33.1410  134.3230 N.am  477  ASN477     -0.0877
    208  N         24.2850  -31.0150  136.6540 N.am  478  ALA478     -0.1977
    209  CA        22.9880  -30.5940  137.1610 C.3   478  ALA478      0.1597
    210  C         21.8670  -31.1490  136.3040 C.2   478  ALA478      0.2287
    211  O         21.6650  -30.7170  135.1670 O.2   478  ALA478     -0.2864
    212  CB        22.8980  -29.0890  137.2180 C.3   478  ALA478      0.0319
@<TRIPOS>BOND
     1   126   124    1
     2   136   137    1
     3   125   124    1
     4   124   123    1
     5   137   138    1
     6   137   140    1
     7   123   120    1
     8   138   139    2
     9   142   143    1
    10   140   141    1
    11   120   119    1
    12   120   121    1
    13   143   144    1
    14   143   146    1
    15   144   145    2
    16   105   104    2
    17   130   129    2
    18   119   113   am
    19   133   134    2
    20   133   132    1
    21   121   127   am
    22   121   122    2
    23   127   128    1
    24   146   147    1
    25   102   103    1
    26   147   148    1
    27   129   128    1
    28   129   131   am
    29   113   114    2
    30   113   112    1
    31   104   103    1
    32   104   111   am
    33   106   103    1
    34   106   107    1
    35   151   152    1
    36   110   108   am
    37   132   131    1
    38   132   135    1
    39   112   111    1
    40   112   115    1
    41   108   107    1
    42   108   109    2
    43   149   148   ar
    44   148   150   ar
    45   153   152    1
    46   153   154    2
    47   152   155    1
    48   155   156    1
    49    16    15    1
    50   115   116    1
    51   156   157    1
    52    15    12    1
    53   157   158    1
    54   116   118   ar
    55   116   117   ar
    56   158   159    1
    57    12    13    1
    58    12    11    1
    59    13    14    2
    60     8    10   ar
    61     8     6   ar
    62    11     3   am
    63    10     9   ar
    64    69    68    2
    65     5     6    1
    66     5     2    1
    67     6     7   ar
    68    70    68   am
    69     3     2    1
    70     3     4    2
    71    68    67    1
    72   100    99   ar
    73    94    95    1
    74     1     2    1
    75    67    64    1
    76     9     7   ar
    77    95    96    1
    78    95    98    1
    79    99   101   ar
    80    99    98    1
    81    97    96    2
    82    17    18    1
    83    93    91   ar
    84    64    63    1
    85    64    65    1
    86    92    91   ar
    87    66    65    2
    88    23    25   ar
    89    23    22   ar
    90    91    90    1
    91    65    71   am
    92    25    27   ar
    93    18    19    1
    94    18    21    1
    95    19    20    2
    96    21    22    1
    97    57    56    2
    98    22    24   ar
    99    71    72    1
   100    27    28    1
   101    27    26   ar
   102    75    72    1
   103    90    89    1
   104    56    55    1
   105    84    83    1
   106    89    86    1
   107    72    73    1
   108    24    26   ar
   109   207   205   am
   110    83    82    1
   111    55    54    1
   112    55    58    1
   113   211   210    2
   114    81    82    1
   115    81    80    1
   116    73    74    2
   117   205   206    2
   118   205   204    1
   119    86    87    1
   120    86    85    1
   121    59    58    1
   122    59    60    1
   123    87    88    2
   124    80    77    1
   125   210   209    1
   126    62    60   ar
   127   199   198    2
   128   204   201    1
   129   208   209    1
   130   208   202   am
   131    60    61   ar
   132   201   202    1
   133   201   200    1
   134   209   212    1
   135    36    34    1
   136   202   203    2
   137    79    78    2
   138    77    78    1
   139    77    76    1
   140   198   200   am
   141   198   197    1
   142   194   195    1
   143   194   191    1
   144    35    33    1
   145   196   197    2
   146   196   192    1
   147    33    34    1
   148    33    30    1
   149   191   192    1
   150   191   190    1
   151   192   193    2
   152   171   170    2
   153    52    53    1
   154    52    51    1
   155    30    31    1
   156    30    29    1
   157    31    32    2
   158   163   162    2
   159    51    50    1
   160    50    49    1
   161   170   169    1
   162    49    46    1
   163   168   169    1
   164   172   169    1
   165   172   173    1
   166   172   174    1
   167   162   161    1
   168   186   185    2
   169   160   161    1
   170   166   165    2
   171    46    47    1
   172    46    45    1
   173   188   187    1
   174   182   181    1
   175   161   164    1
   176    43    42    1
   177   185   184    1
   178    47    48    2
   179    40    39    2
   180   165   167   am
   181   165   164    1
   182   181   180    1
   183    37    38    1
   184    42    41    1
   185    42    44    1
   186    41    38    1
   187   180   179    1
   188   187   184    1
   189   187   189    1
   190   184   183    1
   191    39    38    1
   192   179   176    1
   193   176   175    1
   194   176   177    1
   195   177   178    2
