@<TRIPOS>MOLECULE
tmp/2hs4A01.pdb
 204 196 0 0 0
SMALL
GASTEIGER

@<TRIPOS>ATOM
      1  N         19.5210  -29.0830  129.6680 N.3    31  HIS31      -0.1241
      2  CA        20.6270  -30.0220  129.7550 C.3    31  HIS31       0.1621
      3  C         21.9480  -29.4650  129.2330 C.2    31  HIS31       0.2264
      4  O         23.0030  -29.7070  129.8210 O.2    31  HIS31      -0.2867
      5  CB        20.3140  -31.3240  129.0060 C.3    31  HIS31       0.0745
      6  CG        21.4490  -32.3020  129.0300 C.ar   31  HIS31       0.0817
      7  ND1       21.7560  -33.0560  130.1420 N.ar   31  HIS31      -0.2268
      8  CD2       22.4080  -32.5760  128.1140 C.ar   31  HIS31       0.1154
      9  CE1       22.8570  -33.7490  129.9120 C.ar   31  HIS31       0.1986
     10  NE2       23.2730  -33.4750  128.6890 N.ar   31  HIS31      -0.2212
     11  N         28.4430  -37.3360  136.4890 N.3    69  GLU69      -0.1231
     12  CA        27.3640  -36.9680  135.5910 C.3    69  GLU69       0.1699
     13  C         26.2220  -37.9030  135.9330 C.2    69  GLU69       0.2593
     14  O         26.3300  -38.7160  136.8610 O.2    69  GLU69      -0.2718
     15  CB        27.7650  -37.1350  134.1180 C.3    69  GLU69       0.0402
     16  CG        28.6160  -35.9910  133.5560 C.3    69  GLU69       0.1161
     17  CD        28.8210  -36.0800  132.0430 C.2    69  GLU69       0.3649
     18  OE1       29.2350  -37.1520  131.5510 O.co2  69  GLU69      -0.2457
     19  OE2       28.5770  -35.0740  131.3420 O.co2  69  GLU69      -0.2457
     20  N         25.1250  -37.7880  135.1950 N.am   70  SER70      -0.1938
     21  CA        23.9800  -38.6330  135.4510 C.3    70  SER70       0.2055
     22  C         23.2860  -38.9760  134.1480 C.2    70  SER70       0.2643
     23  O         23.5390  -38.3580  133.1160 O.2    70  SER70      -0.2714
     24  CB        23.0140  -37.9200  136.3810 C.3    70  SER70       0.2130
     25  OG        22.5120  -36.7580  135.7540 O.3    70  SER70      -0.2179
     26  N         22.4270  -39.9840  134.2130 N.am   71  HIS71      -0.1959
     27  CA        21.6570  -40.4440  133.0710 C.3    71  HIS71       0.1787
     28  C         20.2940  -40.8520  133.6270 C.2    71  HIS71       0.2620
     29  O         19.8900  -42.0150  133.5510 O.2    71  HIS71      -0.2715
     30  CB        22.3240  -41.6500  132.4260 C.3    71  HIS71       0.0785
     31  CG        22.6420  -41.4670  130.9720 C.ar   71  HIS71       0.0821
     32  ND1       22.2940  -42.3950  130.0120 N.ar   71  HIS71      -0.2267
     33  CD2       23.3420  -40.5040  130.3270 C.ar   71  HIS71       0.1154
     34  CE1       22.7740  -42.0160  128.8430 C.ar   71  HIS71       0.1986
     35  NE2       23.4140  -40.8720  129.0070 N.ar   71  HIS71      -0.2212
     36  N         19.5950  -39.8680  134.1820 N.am   72  ASN72      -0.1958
     37  CA        18.3010  -40.0870  134.7800 C.3    72  ASN72       0.1819
     38  C         17.1600  -40.3300  133.8070 C.2    72  ASN72       0.2621
     39  O         16.5810  -41.4200  133.8060 O.2    72  ASN72      -0.2715
     40  CB        17.9700  -38.9200  135.7080 C.3    72  ASN72       0.1195
     41  CG        18.9920  -38.7630  136.8170 C.2    72  ASN72       0.2630
     42  OD1       19.6530  -39.7340  137.2130 O.2    72  ASN72      -0.2716
     43  ND2       19.1230  -37.5470  137.3370 N.am   72  ASN72      -0.0877
     44  N         16.8270  -39.3400  132.9790 N.am   73  HIS73      -0.1960
     45  CA        15.7130  -39.5100  132.0470 C.3    73  HIS73       0.1772
     46  C         15.8550  -40.7610  131.1670 C.2    73  HIS73       0.2462
     47  O         14.8960  -41.5180  130.9900 O.2    73  HIS73      -0.2730
     48  CB        15.5200  -38.2520  131.1840 C.3    73  HIS73       0.0785
     49  CG        15.0430  -37.0560  131.9520 C.ar   73  HIS73       0.0821
     50  ND1       15.8870  -36.2550  132.6910 N.ar   73  HIS73      -0.2267
     51  CD2       13.8010  -36.5510  132.1330 C.ar   73  HIS73       0.1154
     52  CE1       15.1900  -35.3100  133.2950 C.ar   73  HIS73       0.1986
     53  NE2       13.9190  -35.4680  132.9740 N.ar   73  HIS73      -0.2212
     54  N         17.0600  -41.0140  130.6300 N.am   74  PRO74      -0.2727
     55  CA        17.2380  -42.2020  129.7870 C.3    74  PRO74       0.1402
     56  C         16.9540  -43.5040  130.5370 C.2    74  PRO74       0.2269
     57  O         16.3340  -44.4180  129.9960 O.2    74  PRO74      -0.2865
     58  CB        18.7030  -42.1280  129.3720 C.3    74  PRO74       0.0296
     59  CG        19.0460  -40.6870  129.5100 C.3    74  PRO74       0.0237
     60  CD        18.3170  -40.2530  130.7430 C.3    74  PRO74       0.0939
     61  N         25.2470  -46.5640  128.9460 N.3    85  THR85      -0.1203
     62  CA        25.6120  -45.3570  128.2330 C.3    85  THR85       0.1994
     63  C         26.0510  -44.2410  129.1850 C.2    85  THR85       0.2618
     64  O         26.9450  -43.4570  128.8550 O.2    85  THR85      -0.2717
     65  CB        24.4400  -44.8930  127.3740 C.3    85  THR85       0.1784
     66  OG1       24.1160  -45.9260  126.4400 O.3    85  THR85      -0.2211
     67  CG2       24.8020  -43.6540  126.6090 C.3    85  THR85       0.0376
     68  N         25.4230  -44.1670  130.3600 N.am   86  GLY86      -0.1956
     69  CA        25.7970  -43.1600  131.3460 C.3    86  GLY86       0.1869
     70  C         27.2610  -43.3550  131.7150 C.2    86  GLY86       0.2309
     71  O         28.0360  -42.3980  131.8070 O.2    86  GLY86      -0.2863
     72  N         29.5430  -42.3920  128.7450 N.3    89  GLY89      -0.1225
     73  CA        29.7320  -40.9550  128.6680 C.3    89  GLY89       0.1811
     74  C         30.6370  -40.3230  129.7130 C.2    89  GLY89       0.2280
     75  O         31.4630  -39.4820  129.3710 O.2    89  GLY89      -0.2866
     76  N         34.2350  -41.0160  128.9570 N.3    92  ARG92      -0.1231
     77  CA        34.7580  -40.1950  127.8670 C.3    92  ARG92       0.1694
     78  C         35.1600  -38.8090  128.3880 C.2    92  ARG92       0.2592
     79  O         36.0930  -38.1990  127.8700 O.2    92  ARG92      -0.2718
     80  CB        33.7170  -40.0370  126.7460 C.3    92  ARG92       0.0321
     81  CG        33.6660  -41.1810  125.7230 C.3    92  ARG92       0.0489
     82  CD        32.7260  -40.8330  124.5720 C.3    92  ARG92       0.2205
     83  NE        31.3440  -40.6650  125.0220 N.pl3  92  ARG92      -0.0865
     84  CZ        30.5140  -41.6740  125.2690 C.cat  92  ARG92       0.5346
     85  NH1       30.9190  -42.9180  125.1010 N.pl3  92  ARG92       0.1354
     86  NH2       29.2870  -41.4420  125.7020 N.pl3  92  ARG92       0.1354
     87  N         34.4530  -38.3150  129.4060 N.am   93  ASP93      -0.1974
     88  CA        34.7620  -37.0070  129.9880 C.3    93  ASP93       0.1709
     89  C         36.1070  -37.0210  130.7090 C.2    93  ASP93       0.2293
     90  O         36.9220  -36.1240  130.5390 O.2    93  ASP93      -0.2864
     91  CB        33.6610  -36.5590  130.9600 C.3    93  ASP93       0.1436
     92  CG        32.5050  -35.8690  130.2570 C.2    93  ASP93       0.3671
     93  OD1       32.7590  -34.9910  129.4060 O.co2  93  ASP93      -0.2456
     94  OD2       31.3410  -36.1920  130.5640 O.co2  93  ASP93      -0.2456
     95  N         18.0770  -36.1620  122.3100 N.3   188  GLY188     -0.1210
     96  CA        18.0670  -36.7830  123.6200 C.3   188  GLY188      0.1956
     97  C         18.4190  -35.7810  124.7060 C.2   188  GLY188      0.2611
     98  O         18.2140  -36.0340  125.8970 O.2   188  GLY188     -0.2717
     99  N         18.9600  -34.6380  124.2930 N.am  189  ALA189     -0.1979
    100  CA        19.3300  -33.5840  125.2280 C.3   189  ALA189      0.1597
    101  C         18.0930  -32.7410  125.5470 C.2   189  ALA189      0.2287
    102  O         17.9730  -32.1800  126.6370 O.2   189  ALA189     -0.2864
    103  CB        20.4300  -32.7120  124.6230 C.3   189  ALA189      0.0319
    104  N         15.2120  -34.0910  125.4410 N.3   191  PHE191     -0.1227
    105  CA        14.4030  -35.0780  126.1380 C.3   191  PHE191      0.1736
    106  C         14.6980  -35.0290  127.6410 C.2   191  PHE191      0.2595
    107  O         13.7890  -35.1120  128.4670 O.2   191  PHE191     -0.2718
    108  CB        14.7080  -36.4650  125.5590 C.3   191  PHE191      0.0547
    109  CG        14.4410  -37.5990  126.5030 C.ar  191  PHE191     -0.0202
    110  CD1       13.1560  -37.8450  126.9810 C.ar  191  PHE191     -0.0042
    111  CD2       15.4790  -38.4270  126.9170 C.ar  191  PHE191     -0.0042
    112  CE1       12.9100  -38.9040  127.8630 C.ar  191  PHE191     -0.0003
    113  CE2       15.2480  -39.4830  127.7930 C.ar  191  PHE191     -0.0003
    114  CZ        13.9570  -39.7220  128.2680 C.ar  191  PHE191     -0.0000
    115  N         15.9710  -34.8690  127.9840 N.am  192  ALA192     -0.1980
    116  CA        16.4060  -34.8180  129.3790 C.3   192  ALA192      0.1597
    117  C         16.1250  -33.4750  130.0560 C.2   192  ALA192      0.2287
    118  O         16.4960  -33.2690  131.2170 O.2   192  ALA192     -0.2864
    119  CB        17.9100  -35.1430  129.4630 C.3   192  ALA192      0.0319
    120  N         15.1840  -41.2930  121.4730 N.3   205  SER205     -0.1217
    121  CA        16.0620  -40.3820  122.2030 C.3   205  SER205      0.1889
    122  C         17.1300  -41.1060  123.0250 C.2   205  SER205      0.2288
    123  O         18.0060  -40.4660  123.6100 O.2   205  SER205     -0.2866
    124  CB        15.2380  -39.4910  123.1340 C.3   205  SER205      0.2089
    125  OG        14.3290  -38.6900  122.4020 O.3   205  SER205     -0.2183
    126  N         20.4380  -43.4490  123.6550 N.3   207  GLN207     -0.1245
    127  CA        21.7180  -43.7510  123.0170 C.3   207  GLN207      0.1566
    128  C         21.9830  -45.2480  123.1460 C.2   207  GLN207      0.2260
    129  O         21.5900  -45.8480  124.1380 O.2   207  GLN207     -0.2867
    130  CB        22.8310  -42.9340  123.6930 C.3   207  GLN207      0.0367
    131  CG        22.7310  -41.4190  123.4360 C.3   207  GLN207      0.0905
    132  CD        23.4270  -40.5650  124.4950 C.2   207  GLN207      0.2608
    133  OE1       23.7050  -39.3810  124.2760 O.2   207  GLN207     -0.2717
    134  NE2       23.6940  -41.1570  125.6510 N.am  207  GLN207     -0.0878
    135  N         34.6040  -34.7780  124.5600 N.3   235  ASP235     -0.1225
    136  CA        33.9070  -36.0080  124.2310 C.3   235  ASP235      0.1805
    137  C         32.5520  -35.6590  123.6280 C.2   235  ASP235      0.2598
    138  O         32.0350  -34.5620  123.8300 O.2   235  ASP235     -0.2718
    139  CB        33.7240  -36.8840  125.4870 C.3   235  ASP235      0.1424
    140  CG        32.6530  -36.3480  126.4460 C.2   235  ASP235      0.3668
    141  OD1       32.8750  -35.2840  127.0730 O.co2 235  ASP235     -0.2456
    142  OD2       31.5900  -37.0050  126.5700 O.co2 235  ASP235     -0.2456
    143  N         31.9930  -36.5820  122.8600 N.am  236  LEU236     -0.1966
    144  CA        30.6870  -36.3580  122.2740 C.3   236  LEU236      0.1728
    145  C         29.6350  -37.0800  123.1170 C.2   236  LEU236      0.2617
    146  O         29.8850  -38.1530  123.6760 O.2   236  LEU236     -0.2715
    147  CB        30.6410  -36.8500  120.8200 C.3   236  LEU236      0.0311
    148  CG        30.9810  -35.7940  119.7620 C.3   236  LEU236      0.0022
    149  CD1       32.4840  -35.6010  119.7100 C.3   236  LEU236      0.0001
    150  CD2       30.4580  -36.2180  118.4010 C.3   236  LEU236      0.0001
    151  N         28.4660  -36.4630  123.2190 N.am  237  GLY237     -0.1940
    152  CA        27.3800  -37.0330  123.9860 C.3   237  GLY237      0.2014
    153  C         26.1060  -36.3360  123.5670 C.2   237  GLY237      0.2638
    154  O         25.5370  -36.6440  122.5210 O.2   237  GLY237     -0.2714
    155  N         25.6600  -35.3850  124.3770 N.am  238  ALA238     -0.1977
    156  CA        24.4580  -34.6380  124.0620 C.3   238  ALA238      0.1597
    157  C         24.8010  -33.5340  123.0570 C.2   238  ALA238      0.2287
    158  O         25.6780  -32.7050  123.3060 O.2   238  ALA238     -0.2864
    159  CB        23.8880  -34.0470  125.3240 C.3   238  ALA238      0.0319
    160  N         23.4370  -38.2740  118.5860 N.3   279  GLU279     -0.1245
    161  CA        24.1430  -38.4970  119.8350 C.3   279  GLU279      0.1567
    162  C         24.7360  -39.8750  120.0210 C.2   279  GLU279      0.2260
    163  O         24.7950  -40.3870  121.1310 O.2   279  GLU279     -0.2867
    164  CB        23.2220  -38.1290  121.0000 C.3   279  GLU279      0.0388
    165  CG        22.8810  -36.6380  120.9760 C.3   279  GLU279      0.1160
    166  CD        22.0880  -36.1640  122.1750 C.2   279  GLU279      0.3649
    167  OE1       22.3160  -36.6850  123.2930 O.co2 279  GLU279     -0.2457
    168  OE2       21.2500  -35.2490  121.9940 O.co2 279  GLU279     -0.2457
    169  N         27.2730  -42.9440  120.4660 N.3   281  GLN281     -0.1245
    170  CA        28.3620  -43.1760  121.4160 C.3   281  GLN281      0.1566
    171  C         29.7240  -43.5290  120.8240 C.2   281  GLN281      0.2260
    172  O         29.8800  -43.6790  119.6170 O.2   281  GLN281     -0.2867
    173  CB        27.9470  -44.2950  122.3710 C.3   281  GLN281      0.0367
    174  CG        26.5720  -44.1050  122.9660 C.3   281  GLN281      0.0905
    175  CD        26.5200  -42.8920  123.8580 C.2   281  GLN281      0.2608
    176  OE1       27.0830  -42.8920  124.9590 O.2   281  GLN281     -0.2717
    177  NE2       25.8600  -41.8360  123.3840 N.am  281  GLN281     -0.0878
    178  N         27.6280  -31.5140  137.8660 N.3   477  ASN477     -0.1225
    179  CA        26.5900  -31.7500  136.8760 C.3   477  ASN477      0.1785
    180  C         25.2820  -31.2810  137.4890 C.2   477  ASN477      0.2597
    181  O         25.1870  -31.1460  138.7070 O.2   477  ASN477     -0.2718
    182  CB        26.5120  -33.2490  136.5610 C.3   477  ASN477      0.1169
    183  CG        25.4180  -33.5900  135.5610 C.2   477  ASN477      0.2627
    184  OD1       24.4290  -34.2470  135.8970 O.2   477  ASN477     -0.2716
    185  ND2       25.5910  -33.1410  134.3230 N.am  477  ASN477     -0.0877
    186  N         24.2850  -31.0150  136.6540 N.am  478  ALA478     -0.1966
    187  CA        22.9880  -30.5940  137.1610 C.3   478  ALA478      0.1728
    188  C         21.8670  -31.1490  136.3040 C.2   478  ALA478      0.2617
    189  O         21.6650  -30.7170  135.1670 O.2   478  ALA478     -0.2715
    190  CB        22.8980  -29.0890  137.2180 C.3   478  ALA478      0.0334
    191  N         21.1470  -32.1210  136.8600 N.am  479  SER479     -0.1936
    192  CA        20.0260  -32.7380  136.1750 C.3   479  SER479      0.2055
    193  C         18.7320  -32.1640  136.7390 C.2   479  SER479      0.2642
    194  O         18.4070  -32.3850  137.9060 O.2   479  SER479     -0.2714
    195  CB        20.0460  -34.2500  136.3750 C.3   479  SER479      0.2130
    196  OG        18.9190  -34.8430  135.7580 O.3   479  SER479     -0.2179
    197  N         18.0050  -31.4140  135.9160 N.am  480  LEU480     -0.1977
    198  CA        16.7560  -30.8200  136.3570 C.3   480  LEU480      0.1596
    199  C         15.5740  -31.4340  135.6310 C.2   480  LEU480      0.2287
    200  O         15.7460  -32.2050  134.6890 O.2   480  LEU480     -0.2864
    201  CB        16.7700  -29.3040  136.1340 C.3   480  LEU480      0.0297
    202  CG        17.8900  -28.5130  136.8150 C.3   480  LEU480      0.0022
    203  CD1       17.5420  -27.0380  136.7880 C.3   480  LEU480      0.0001
    204  CD2       18.0730  -28.9850  138.2600 C.3   480  LEU480      0.0001
@<TRIPOS>BOND
     1   150   148    1
     2   160   161    1
     3   172   171    2
     4   149   148    1
     5   148   147    1
     6   161   162    1
     7   161   164    1
     8   162   163    2
     9   169   170    1
    10   147   144    1
    11   171   170    1
    12   165   164    1
    13   165   166    1
    14   170   173    1
    15   120   121    1
    16   168   166   ar
    17   166   167   ar
    18   121   122    1
    19   121   124    1
    20   144   143    1
    21   144   145    1
    22    95    96    1
    23   173   174    1
    24   125   124    1
    25   154   153    2
    26   143   137   am
    27   174   175    1
    28   127   128    1
    29   127   126    1
    30   127   130    1
    31   122   123    2
    32   157   158    2
    33   157   156    1
    34   145   151   am
    35   145   146    2
    36   128   129    2
    37   151   152    1
    38   177   175   am
    39   131   130    1
    40   131   132    1
    41   153   152    1
    42   153   155   am
    43    96    97    1
    44   137   138    2
    45   137   136    1
    46   175   176    2
    47   156   155    1
    48   156   159    1
    49   136   135    1
    50   136   139    1
    51   133   132    2
    52    99    97   am
    53    99   100    1
    54   132   134   am
    55    82    83    1
    56    82    81    1
    57   103   100    1
    58    97    98    2
    59    83    84    2
    60    85    84    1
    61   100   101    1
    62    84    86    1
    63   104   105    1
    64   139   140    1
    65   101   102    2
    66   108   105    1
    67   108   109    1
    68    81    80    1
    69   105   106    1
    70    66    65    1
    71   140   142   ar
    72   140   141   ar
    73   109   111   ar
    74   109   110   ar
    75    67    65    1
    76    80    77    1
    77   111   113   ar
    78   110   112   ar
    79    65    62    1
    80   106   115   am
    81   106   107    2
    82   113   114   ar
    83   112   114   ar
    84    77    78    1
    85    77    76    1
    86    79    78    2
    87   115   116    1
    88     8    10   ar
    89     8     6   ar
    90    62    61    1
    91    62    63    1
    92    78    87   am
    93    73    72    1
    94    73    74    1
    95    10     9   ar
    96    34    35   ar
    97    34    32   ar
    98    64    63    2
    99     5     6    1
   100     5     2    1
   101    35    33   ar
   102     6     7   ar
   103    63    68   am
   104     3     2    1
   105     3     4    2
   106    75    74    2
   107    58    59    1
   108    58    55    1
   109   116   119    1
   110   116   117    1
   111    93    92   ar
   112    87    88    1
   113    59    60    1
   114     1     2    1
   115    55    56    1
   116    55    54    1
   117     9     7   ar
   118    88    89    1
   119    88    91    1
   120    57    56    2
   121    32    31   ar
   122   117   118    2
   123    92    94   ar
   124    92    91    1
   125    33    31   ar
   126    68    69    1
   127    90    89    2
   128    54    60    1
   129    54    46   am
   130    31    30    1
   131    47    46    2
   132    46    45    1
   133    48    49    1
   134    48    45    1
   135    19    17   ar
   136    69    70    1
   137    18    17   ar
   138    70    71    2
   139    49    51   ar
   140    49    50   ar
   141    17    16    1
   142    45    44    1
   143    51    53   ar
   144    30    27    1
   145    50    52   ar
   146    53    52   ar
   147    44    38   am
   148    27    28    1
   149    27    26    1
   150    23    22    2
   151    29    28    2
   152    16    15    1
   153    28    36   am
   154    39    38    2
   155    38    37    1
   156    15    12    1
   157    22    26   am
   158    22    21    1
   159    36    37    1
   160   185   183   am
   161   200   199    2
   162    37    40    1
   163   189   188    2
   164    20    21    1
   165    20    13   am
   166    21    24    1
   167   183   184    2
   168   183   182    1
   169    12    13    1
   170    12    11    1
   171   199   198    1
   172    40    41    1
   173    25    24    1
   174   196   195    1
   175   197   198    1
   176   197   193   am
   177    13    14    2
   178   201   198    1
   179   201   202    1
   180   192   195    1
   181   192   193    1
   182   192   191    1
   183   188   191   am
   184   188   187    1
   185   182   179    1
   186   186   187    1
   187   186   180   am
   188   193   194    2
   189   203   202    1
   190   202   204    1
   191    41    42    2
   192    41    43   am
   193   179   180    1
   194   179   178    1
   195   187   190    1
   196   180   181    2
