@<TRIPOS>MOLECULE
tmp/2hs6A01.pdb
 101 99 0 0 0
SMALL
GASTEIGER

@<TRIPOS>ATOM
      1  N          4.5530    3.0220   -4.3390 N.3    24  THR24      -0.1218
      2  CA         4.2380    2.4650   -5.6470 C.3    24  THR24       0.1862
      3  C          4.5500    3.5600   -6.6740 C.2    24  THR24       0.2287
      4  O          4.0570    4.6760   -6.5490 O.2    24  THR24      -0.2866
      5  CB         2.7310    2.1040   -5.7200 C.3    24  THR24       0.1770
      6  OG1        2.4540    1.0340   -4.8070 O.3    24  THR24      -0.2211
      7  CG2        2.3310    1.7030   -7.1220 C.3    24  THR24       0.0375
      8  N         -2.4210   -2.2050   -9.4280 N.3    65  PHE65      -0.1241
      9  CA        -1.8010   -1.0600  -10.0880 C.3    65  PHE65       0.1605
     10  C         -1.0010   -1.5740  -11.2760 C.2    65  PHE65       0.2264
     11  O         -0.5890   -2.7300  -11.3080 O.2    65  PHE65      -0.2867
     12  CB        -0.8610   -0.3100   -9.1480 C.3    65  PHE65       0.0534
     13  CG        -1.5270    0.7770   -8.3600 C.ar   65  PHE65      -0.0203
     14  CD1       -2.3520    0.4720   -7.2850 C.ar   65  PHE65      -0.0042
     15  CD2       -1.3130    2.1100   -8.6880 C.ar   65  PHE65      -0.0042
     16  CE1       -2.9540    1.4840   -6.5440 C.ar   65  PHE65      -0.0003
     17  CE2       -1.9110    3.1350   -7.9540 C.ar   65  PHE65      -0.0003
     18  CZ        -2.7310    2.8210   -6.8800 C.ar   65  PHE65      -0.0000
     19  N          2.9360   -6.8990   -0.8840 N.3    99  TRP99      -0.1241
     20  CA         1.6420   -6.2640   -1.1000 C.3    99  TRP99       0.1605
     21  C          0.5910   -7.0150   -1.9060 C.2    99  TRP99       0.2264
     22  O          0.8290   -7.3940   -3.0530 O.2    99  TRP99      -0.2867
     23  CB         1.9150   -4.9050   -1.7650 C.3    99  TRP99       0.0550
     24  CG         0.7350   -4.0240   -2.0380 C.ar   99  TRP99       0.0003
     25  CD1       -0.3520   -3.8360   -1.2370 C.ar   99  TRP99       0.0946
     26  CD2        0.5940   -3.0920   -3.1260 C.ar   99  TRP99       0.0152
     27  NE1       -1.1560   -2.8420   -1.7500 N.ar   99  TRP99      -0.2442
     28  CE2       -0.5990   -2.3700   -2.9080 C.ar   99  TRP99       0.0810
     29  CE3        1.3660   -2.7940   -4.2590 C.ar   99  TRP99       0.0012
     30  CZ2       -1.0420   -1.3650   -3.7810 C.ar   99  TRP99       0.0191
     31  CZ3        0.9260   -1.7920   -5.1300 C.ar   99  TRP99       0.0001
     32  CH2       -0.2670   -1.0910   -4.8840 C.ar   99  TRP99       0.0015
     33  N          2.3830   -5.3900    4.1480 N.3   176  HIS176     -0.1241
     34  CA         1.5260   -4.2420    3.9240 C.3   176  HIS176      0.1621
     35  C          0.1260   -4.5960    4.4210 C.2   176  HIS176      0.2264
     36  O         -0.6570   -5.2050    3.7020 O.2   176  HIS176     -0.2867
     37  CB         1.4860   -3.9000    2.4370 C.3   176  HIS176      0.0745
     38  CG         0.7760   -2.6180    2.1310 C.ar  176  HIS176      0.0817
     39  ND1       -0.1950   -2.0910    2.9560 N.ar  176  HIS176     -0.2268
     40  CD2        0.8600   -1.7840    1.0670 C.ar  176  HIS176      0.1154
     41  CE1       -0.6800   -0.9880    2.4110 C.ar  176  HIS176      0.1986
     42  NE2       -0.0580   -0.7800    1.2630 N.ar  176  HIS176     -0.2212
     43  N         -4.1120    0.6720    4.5320 N.3   179  HIS179     -0.1241
     44  CA        -4.7250    1.4000    3.4320 C.3   179  HIS179      0.1621
     45  C         -5.8630    0.7480    2.6640 C.2   179  HIS179      0.2264
     46  O         -6.0880    1.0650    1.4950 O.2   179  HIS179     -0.2867
     47  CB        -3.6250    1.8080    2.4680 C.3   179  HIS179      0.0745
     48  CG        -2.4900    2.5120    3.1390 C.ar  179  HIS179      0.0817
     49  ND1       -1.2250    2.5670    2.5940 N.ar  179  HIS179     -0.2268
     50  CD2       -2.4240    3.1760    4.3170 C.ar  179  HIS179      0.1154
     51  CE1       -0.4280    3.2320    3.4120 C.ar  179  HIS179      0.1986
     52  NE2       -1.1310    3.6110    4.4650 N.ar  179  HIS179     -0.2212
     53  N         -6.2480   -2.5310    1.8030 N.3   181  TYR181     -0.1241
     54  CA        -5.9330   -3.6350    0.9130 C.3   181  TYR181      0.1605
     55  C         -6.3290   -4.9740    1.5240 C.2   181  TYR181      0.2264
     56  O         -7.0180   -4.9960    2.5390 O.2   181  TYR181     -0.2867
     57  CB        -4.4600   -3.5540    0.5090 C.3   181  TYR181      0.0534
     58  CG        -4.2260   -2.3270   -0.3560 C.ar  181  TYR181     -0.0201
     59  CD1       -4.8910   -2.1800   -1.5770 C.ar  181  TYR181     -0.0009
     60  CD2       -3.3990   -1.2860    0.0720 C.ar  181  TYR181     -0.0009
     61  CE1       -4.7440   -1.0290   -2.3500 C.ar  181  TYR181      0.0417
     62  CE2       -3.2450   -0.1250   -0.6940 C.ar  181  TYR181      0.0417
     63  CZ        -3.9200   -0.0040   -1.9020 C.ar  181  TYR181      0.1957
     64  OH        -3.7740    1.1340   -2.6560 O.3   181  TYR181     -0.2866
     65  N         -7.1110    5.0490    9.1220 N.3   233  ILE233     -0.1245
     66  CA        -7.2690    5.5340    7.7540 C.3   233  ILE233      0.1561
     67  C         -8.4010    4.7670    7.0750 C.2   233  ILE233      0.2260
     68  O         -8.3810    3.5370    7.0310 O.2   233  ILE233     -0.2867
     69  CB        -5.9720    5.3610    6.9410 C.3   233  ILE233      0.0252
     70  CG1       -4.9150    6.3370    7.4590 C.3   233  ILE233      0.0019
     71  CG2       -6.2430    5.5920    5.4590 C.3   233  ILE233      0.0019
     72  CD1       -3.6480    6.3300    6.6620 C.3   233  ILE233      0.0001
     73  N         -9.2690    4.9100    3.8130 N.3   235  HIS235     -0.1241
     74  CA        -9.0320    4.8560    2.3680 C.3   235  HIS235      0.1621
     75  C         -9.7600    3.6550    1.7460 C.2   235  HIS235      0.2264
     76  O         -9.8380    2.5850    2.3500 O.2   235  HIS235     -0.2867
     77  CB        -7.5130    4.7420    2.1200 C.3   235  HIS235      0.0745
     78  CG        -7.1180    4.7160    0.6730 C.ar  235  HIS235      0.0817
     79  ND1       -6.4220    3.6640    0.1100 N.ar  235  HIS235     -0.2268
     80  CD2       -7.2910    5.6230   -0.3180 C.ar  235  HIS235      0.1154
     81  CE1       -6.1860    3.9260   -1.1640 C.ar  235  HIS235      0.1986
     82  NE2       -6.7030    5.1090   -1.4490 N.ar  235  HIS235     -0.2212
     83  N          0.7010    4.3290    9.6320 N.3   271  THR271     -0.1218
     84  CA         0.4000    5.5050    8.8210 C.3   271  THR271      0.1862
     85  C         -0.7910    6.2280    9.4370 C.2   271  THR271      0.2287
     86  O         -1.8510    5.6360    9.6380 O.2   271  THR271     -0.2866
     87  CB         0.0280    5.1030    7.3750 C.3   271  THR271      0.1770
     88  OG1        1.1780    4.5570    6.7120 O.3   271  THR271     -0.2211
     89  CG2       -0.4700    6.3110    6.6070 C.3   271  THR271      0.0375
     90  N          2.6420    7.9120  -10.8740 N.3   347  TYR347     -0.1241
     91  CA         2.3950    6.5610  -11.3810 C.3   347  TYR347      0.1605
     92  C          2.5930    6.3020  -12.8780 C.2   347  TYR347      0.2264
     93  O          2.1130    5.2990  -13.4010 O.2   347  TYR347     -0.2867
     94  CB         0.9720    6.1450  -10.9990 C.3   347  TYR347      0.0534
     95  CG         0.6420    6.3650   -9.5380 C.ar  347  TYR347     -0.0201
     96  CD1        1.3010    5.6530   -8.5330 C.ar  347  TYR347     -0.0009
     97  CD2       -0.3370    7.2800   -9.1590 C.ar  347  TYR347     -0.0009
     98  CE1        0.9850    5.8470   -7.1890 C.ar  347  TYR347      0.0417
     99  CE2       -0.6560    7.4820   -7.8160 C.ar  347  TYR347      0.0417
    100  CZ         0.0050    6.7610   -6.8410 C.ar  347  TYR347      0.1957
    101  OH        -0.3260    6.9530   -5.5190 O.3   347  TYR347     -0.2866
@<TRIPOS>BOND
     1    93    92    2
     2    92    91    1
     3    91    94    1
     4    91    90    1
     5    11    10    2
     6    10     9    1
     7    94    95    1
     8     9     8    1
     9     9    12    1
    10    95    97   ar
    11    95    96   ar
    12    97    99   ar
    13    12    13    1
    14    15    13   ar
    15    15    17   ar
    16    96    98   ar
    17    13    14   ar
    18    17    18   ar
    19    99   100   ar
    20    14    16   ar
    21    98   100   ar
    22     7     5    1
    23    18    16   ar
    24   100   101    1
    25     3     4    2
    26     3     2    1
    27     5     2    1
    28     5     6    1
    29     2     1    1
    30    31    32   ar
    31    31    29   ar
    32    32    30   ar
    33    29    26   ar
    34    30    28   ar
    35    26    28   ar
    36    26    24   ar
    37    22    21    2
    38    28    27   ar
    39    64    63    1
    40    61    63   ar
    41    61    59   ar
    42    24    23    1
    43    24    25   ar
    44    21    20    1
    45    63    62   ar
    46    23    20    1
    47    27    25   ar
    48    59    58   ar
    49    82    81   ar
    50    82    80   ar
    51    81    79   ar
    52    20    19    1
    53    62    60   ar
    54    58    60   ar
    55    58    57    1
    56    80    78   ar
    57    79    78   ar
    58    57    54    1
    59    78    77    1
    60    54    55    1
    61    54    53    1
    62    40    42   ar
    63    40    38   ar
    64    42    41   ar
    65    46    45    2
    66    55    56    2
    67    75    76    2
    68    75    74    1
    69    77    74    1
    70    38    37    1
    71    38    39   ar
    72    74    73    1
    73    41    39   ar
    74    37    34    1
    75    47    48    1
    76    47    44    1
    77    49    48   ar
    78    49    51   ar
    79    45    44    1
    80    48    50   ar
    81    51    52   ar
    82    44    43    1
    83    36    35    2
    84    34    33    1
    85    34    35    1
    86    50    52   ar
    87    71    69    1
    88    89    87    1
    89    72    70    1
    90    88    87    1
    91    69    70    1
    92    69    66    1
    93    68    67    2
    94    67    66    1
    95    87    84    1
    96    66    65    1
    97    84    85    1
    98    84    83    1
    99    85    86    2
