@<TRIPOS>MOLECULE
tmp/2hsaB00.pdb
 212 208 0 0 0
SMALL
GASTEIGER

@<TRIPOS>ATOM
      1  N          5.5680   -0.7070   32.0980 N.3    21  ALA21      -0.1231
      2  CA         6.8260   -0.3970   32.8210 C.3    21  ALA21       0.1679
      3  C          7.6410   -1.6730   32.8410 C.2    21  ALA21       0.2434
      4  O          7.0950   -2.7720   32.8360 O.2    21  ALA21      -0.2733
      5  CB         6.5090    0.0260   34.2380 C.3    21  ALA21       0.0304
      6  N          8.9660   -1.5460   32.9060 N.am   22  PRO22      -0.2718
      7  CA         9.8770   -2.7070   32.9410 C.3    22  PRO22       0.1535
      8  C          9.6940   -3.4430   34.2540 C.2    22  PRO22       0.2598
      9  O          9.7610   -2.8440   35.3160 O.2    22  PRO22      -0.2715
     10  CB        11.2820   -2.0670   32.8700 C.3    22  PRO22       0.0310
     11  CG        11.0840   -0.6810   33.4370 C.3    22  PRO22       0.0237
     12  CD         9.6890   -0.2660   32.9060 C.3    22  PRO22       0.0939
     13  N          9.4110   -4.7390   34.1920 N.am   23  MET23      -0.1964
     14  CA         9.2600   -5.4860   35.4250 C.3    23  MET23       0.1736
     15  C          9.8710   -6.8630   35.4030 C.2    23  MET23       0.2617
     16  O          9.5220   -7.7100   34.5630 O.2    23  MET23      -0.2715
     17  CB         7.7910   -5.6500   35.8260 C.3    23  MET23       0.0427
     18  CG         7.1260   -4.3430   36.2450 C.3    23  MET23       0.0599
     19  SD         5.3650   -4.7180   36.5860 S.3    23  MET23      -0.1393
     20  CE         4.7440   -4.9310   34.9040 C.3    23  MET23       0.0692
     21  N         10.8320   -7.0400   36.3040 N.am   24  THR24      -0.1937
     22  CA        11.4810   -8.3140   36.5220 C.3    24  THR24       0.2028
     23  C         10.3990   -9.3140   36.9720 C.2    24  THR24       0.2642
     24  O          9.6520   -9.0500   37.9290 O.2    24  THR24      -0.2714
     25  CB        12.5080   -8.1200   37.6340 C.3    24  THR24       0.1808
     26  OG1       13.5540   -7.3030   37.1240 O.3    24  THR24      -0.2208
     27  CG2       13.1040   -9.4500   38.1570 C.3    24  THR24       0.0379
     28  N         10.3650  -10.4870   36.3330 N.am   25  ARG25      -0.1977
     29  CA         9.3680  -11.5190   36.6620 C.3    25  ARG25       0.1597
     30  C          9.9850  -12.8830   36.8680 C.2    25  ARG25       0.2287
     31  O          9.3160  -13.7950   37.3510 O.2    25  ARG25      -0.2864
     32  CB         8.2400  -11.6060   35.6150 C.3    25  ARG25       0.0334
     33  CG         7.4530  -10.3090   35.3900 C.3    25  ARG25       0.0492
     34  CD         6.8150   -9.7830   36.6770 C.3    25  ARG25       0.2205
     35  NE         5.9380  -10.7560   37.3180 N.pl3  25  ARG25      -0.0865
     36  CZ         4.7330  -11.0950   36.8710 C.cat  25  ARG25       0.5346
     37  NH1        4.2490  -10.5240   35.7740 N.pl3  25  ARG25       0.1354
     38  NH2        4.0480  -12.0400   37.4960 N.pl3  25  ARG25       0.1354
     39  N         14.0780   -5.8790   33.2260 N.3    55  GLY55      -0.1225
     40  CA        15.5280   -5.6260   33.2130 C.3    55  GLY55       0.1811
     41  C         16.2330   -6.8570   32.6240 C.2    55  GLY55       0.2280
     42  O         15.9460   -8.0080   33.0120 O.2    55  GLY55      -0.2866
     43  N         15.0670   -3.2040   28.2790 N.3    97  GLN97      -0.1245
     44  CA        15.7880   -2.5260   29.3560 C.3    97  GLN97       0.1566
     45  C         17.0850   -3.2630   29.7170 C.2    97  GLN97       0.2260
     46  O         17.0670   -4.4380   30.0720 O.2    97  GLN97      -0.2867
     47  CB        14.9570   -2.3950   30.6300 C.3    97  GLN97       0.0367
     48  CG        15.6690   -1.4690   31.6270 C.3    97  GLN97       0.0905
     49  CD        14.9910   -1.3980   32.9950 C.2    97  GLN97       0.2608
     50  OE1       14.5200   -0.3040   33.4100 O.2    97  GLN97      -0.2717
     51  NE2       14.9230   -2.5210   33.6900 N.am   97  GLN97      -0.0878
     52  N         20.0380   -3.9070   32.1770 N.3    99  TRP99      -0.1241
     53  CA        20.1490   -3.8170   33.6270 C.3    99  TRP99       0.1605
     54  C         21.3710   -4.4660   34.2550 C.2    99  TRP99       0.2264
     55  O         21.6250   -5.6570   34.0660 O.2    99  TRP99      -0.2867
     56  CB        18.9150   -4.4970   34.2360 C.3    99  TRP99       0.0550
     57  CG        18.7650   -4.4630   35.7190 C.ar   99  TRP99       0.0003
     58  CD1       19.1730   -3.4680   36.5690 C.ar   99  TRP99       0.0946
     59  CD2       17.9620   -5.3490   36.4980 C.ar   99  TRP99       0.0152
     60  NE1       18.6470   -3.6730   37.8310 N.ar   99  TRP99      -0.2442
     61  CE2       17.8960   -4.8240   37.8060 C.ar   99  TRP99       0.0810
     62  CE3       17.2720   -6.5490   36.2160 C.ar   99  TRP99       0.0012
     63  CZ2       17.1690   -5.4430   38.8300 C.ar   99  TRP99       0.0191
     64  CZ3       16.5550   -7.1550   37.2230 C.ar   99  TRP99       0.0001
     65  CH2       16.4990   -6.6220   38.5120 C.ar   99  TRP99       0.0015
     66  N         18.7080    1.1220   32.4700 N.3   176  HIS176     -0.1241
     67  CA        18.2020    1.1220   33.8380 C.3   176  HIS176      0.1621
     68  C         19.2360    1.8400   34.7240 C.2   176  HIS176      0.2264
     69  O         20.2850    1.2670   35.1430 O.2   176  HIS176     -0.2867
     70  CB        17.9570   -0.3110   34.3160 C.3   176  HIS176      0.0745
     71  CG        17.2810   -0.4040   35.6510 C.ar  176  HIS176      0.0817
     72  ND1       17.2010    0.6460   36.5390 N.ar  176  HIS176     -0.2268
     73  CD2       16.6400   -1.4450   36.2330 C.ar  176  HIS176      0.1154
     74  CE1       16.5440    0.2510   37.6150 C.ar  176  HIS176      0.1986
     75  NE2       16.1930   -1.0220   37.4550 N.ar  176  HIS176     -0.2212
     76  N         16.8100    3.0690   40.9110 N.3   179  HIS179     -0.1241
     77  CA        16.5690    2.1670   42.0440 C.3   179  HIS179      0.1621
     78  C         17.7590    1.5490   42.7870 C.2   179  HIS179      0.2264
     79  O         17.7010    0.4320   43.2640 O.2   179  HIS179     -0.2867
     80  CB        15.6310    1.0480   41.5460 C.3   179  HIS179      0.0745
     81  CG        14.3940    1.5480   40.8260 C.ar  179  HIS179      0.0817
     82  ND1       13.7400    0.7910   39.8760 N.ar  179  HIS179     -0.2268
     83  CD2       13.7320    2.7270   40.8870 C.ar  179  HIS179      0.1154
     84  CE1       12.7270    1.4830   39.3760 C.ar  179  HIS179      0.1986
     85  NE2       12.7010    2.6640   39.9710 N.ar  179  HIS179     -0.2212
     86  N         16.3980    5.6580   32.1900 N.3   228  ARG228     -0.1245
     87  CA        15.5880    5.6580   33.3910 C.3   228  ARG228      0.1563
     88  C         16.3770    5.9600   34.6680 C.2   228  ARG228      0.2260
     89  O         17.4380    5.3570   34.9210 O.2   228  ARG228     -0.2867
     90  CB        14.8350    4.3240   33.5470 C.3   228  ARG228      0.0307
     91  CG        13.7810    4.3740   34.6610 C.3   228  ARG228      0.0489
     92  CD        13.0480    3.0370   34.8270 C.3   228  ARG228      0.2205
     93  NE        11.6010    3.2750   34.9500 N.pl3 228  ARG228     -0.0865
     94  CZ        10.7440    2.4960   35.6100 C.cat 228  ARG228      0.5346
     95  NH1       11.1670    1.4180   36.2390 N.pl3 228  ARG228      0.1354
     96  NH2        9.4310    2.7790   35.5870 N.pl3 228  ARG228      0.1354
     97  N         11.0830    7.4330   37.8520 N.3   271  THR271     -0.1218
     98  CA        10.2560    6.7750   38.8420 C.3   271  THR271      0.1862
     99  C         10.2100    7.6950   40.0570 C.2   271  THR271      0.2287
    100  O         11.2430    8.2060   40.4960 O.2   271  THR271     -0.2866
    101  CB        10.8750    5.4290   39.2420 C.3   271  THR271      0.1770
    102  OG1       10.8830    4.5540   38.1060 O.3   271  THR271     -0.2211
    103  CG2       10.0790    4.7890   40.3380 C.3   271  THR271      0.0375
    104  N          6.3970    7.4240   36.2710 N.3   310  SER310     -0.1202
    105  CA         6.0650    6.0870   36.7430 C.3   310  SER310      0.2020
    106  C          6.1450    6.1240   38.2560 C.2   310  SER310      0.2619
    107  O          6.8250    6.9840   38.8220 O.2   310  SER310     -0.2717
    108  CB         7.0900    5.0720   36.2100 C.3   310  SER310      0.2103
    109  OG         6.6820    3.7230   36.3820 O.3   310  SER310     -0.2182
    110  N          5.4490    5.1920   38.8900 N.am  311  GLY311     -0.1942
    111  CA         5.4790    5.0790   40.3320 C.3   311  GLY311      0.2014
    112  C          4.1300    5.3180   40.9650 C.2   311  GLY311      0.2639
    113  O          3.7960    6.4580   41.2790 O.2   311  GLY311     -0.2714
    114  N          3.3690    4.2400   41.1250 N.am  312  GLY312     -0.1939
    115  CA         2.0640    4.3190   41.7630 C.3   312  GLY312      0.2014
    116  C          0.9750    5.0080   40.9810 C.2   312  GLY312      0.2638
    117  O          0.0170    5.4980   41.5800 O.2   312  GLY312     -0.2714
    118  N          1.1110    5.0710   39.6660 N.am  313  TYR313     -0.1973
    119  CA         0.0730    5.7310   38.8840 C.3   313  TYR313      0.1639
    120  C         -1.1410    4.8400   38.7770 C.2   313  TYR313      0.2290
    121  O         -1.0520    3.6100   38.7620 O.2   313  TYR313     -0.2864
    122  CB         0.5790    6.1100   37.4930 C.3   313  TYR313      0.0560
    123  CG         1.3880    7.3650   37.5470 C.ar  313  TYR313     -0.0198
    124  CD1        2.7270    7.3290   37.9190 C.ar  313  TYR313     -0.0009
    125  CD2        0.7920    8.6180   37.3340 C.ar  313  TYR313     -0.0009
    126  CE1        3.4490    8.4680   38.0860 C.ar  313  TYR313      0.0417
    127  CE2        1.5200    9.7910   37.5090 C.ar  313  TYR313      0.0417
    128  CZ         2.8550    9.7030   37.8890 C.ar  313  TYR313      0.1957
    129  OH         3.5890   10.8520   38.0980 O.3   313  TYR313     -0.2866
    130  N          3.8720    5.1360   32.6440 N.3   331  SER331     -0.1202
    131  CA         4.0680    3.6940   32.6850 C.3   331  SER331      0.2020
    132  C          3.4800    3.1000   33.9310 C.2   331  SER331      0.2619
    133  O          3.4940    3.6850   35.0210 O.2   331  SER331     -0.2717
    134  CB         5.5720    3.2960   32.5780 C.3   331  SER331      0.2103
    135  OG         6.3000    3.6940   33.7340 O.3   331  SER331     -0.2182
    136  N          2.9340    1.9010   33.7480 N.am  332  TYR332     -0.1961
    137  CA         2.2820    1.1630   34.8190 C.3   332  TYR332      0.1771
    138  C          2.9570   -0.1780   34.9930 C.2   332  TYR332      0.2620
    139  O          3.2020   -0.8770   34.0170 O.2   332  TYR332     -0.2715
    140  CB         0.8040    0.9110   34.4620 C.3   332  TYR332      0.0574
    141  CG        -0.0250    2.1810   34.3870 C.ar  332  TYR332     -0.0198
    142  CD1       -0.7830    2.5910   35.4720 C.ar  332  TYR332     -0.0009
    143  CD2       -0.0500    2.9570   33.2250 C.ar  332  TYR332     -0.0009
    144  CE1       -1.5660    3.7760   35.4090 C.ar  332  TYR332      0.0417
    145  CE2       -0.8310    4.1470   33.1550 C.ar  332  TYR332      0.0417
    146  CZ        -1.5660    4.5260   34.2580 C.ar  332  TYR332      0.1957
    147  OH        -2.3150    5.6960   34.2160 O.3   332  TYR332     -0.2866
    148  N          3.1520   -0.5180   36.2660 N.am  333  GLY333     -0.1940
    149  CA         3.7920   -1.7660   36.6420 C.3   333  GLY333      0.2014
    150  C          2.8180   -2.7760   37.2040 C.2   333  GLY333      0.2639
    151  O          2.2760   -3.6000   36.4680 O.2   333  GLY333     -0.2714
    152  N          2.5870   -2.7190   38.5070 N.am  334  ARG334     -0.1963
    153  CA         1.7120   -3.7020   39.1380 C.3   334  ARG334      0.1729
    154  C          0.3350   -3.9130   38.5200 C.2   334  ARG334      0.2616
    155  O         -0.1130   -5.0480   38.4410 O.2   334  ARG334     -0.2715
    156  CB         1.6080   -3.3910   40.6240 C.3   334  ARG334      0.0348
    157  CG         2.9670   -3.6140   41.3600 C.3   334  ARG334      0.0492
    158  CD         2.9250   -3.0430   42.7580 C.3   334  ARG334      0.2205
    159  NE         2.8920   -1.5880   42.7050 N.pl3 334  ARG334     -0.0865
    160  CZ         2.7480   -0.8000   43.7630 C.cat 334  ARG334      0.5346
    161  NH1        2.6060   -1.3260   44.9680 N.pl3 334  ARG334      0.1354
    162  NH2        2.7680    0.5210   43.6130 N.pl3 334  ARG334      0.1354
    163  N         -0.3250   -2.8540   38.0780 N.am  335  LEU335     -0.1977
    164  CA        -1.6440   -3.0760   37.4790 C.3   335  LEU335      0.1596
    165  C         -1.5240   -3.7770   36.1490 C.2   335  LEU335      0.2287
    166  O         -2.4770   -4.4330   35.6870 O.2   335  LEU335     -0.2864
    167  CB        -2.3950   -1.7420   37.3090 C.3   335  LEU335      0.0297
    168  CG        -2.8440   -1.1230   38.6360 C.3   335  LEU335      0.0022
    169  CD1       -3.2870    0.3280   38.4230 C.3   335  LEU335      0.0001
    170  CD2       -4.0000   -1.9540   39.2030 C.3   335  LEU335      0.0001
    171  N          0.6310   -6.1620   35.6200 N.3   337  ILE337     -0.1245
    172  CA         0.9400   -7.5480   35.9290 C.3   337  ILE337      0.1561
    173  C         -0.3940   -8.2940   35.9440 C.2   337  ILE337      0.2260
    174  O         -0.5320   -9.3400   35.3210 O.2   337  ILE337     -0.2867
    175  CB         1.5690   -7.6930   37.3210 C.3   337  ILE337      0.0252
    176  CG1        3.0490   -7.2590   37.2750 C.3   337  ILE337      0.0019
    177  CG2        1.4380   -9.1290   37.7960 C.3   337  ILE337      0.0019
    178  CD1        3.7330   -7.3200   38.6300 C.3   337  ILE337      0.0001
    179  N          1.2890  -10.4070   44.7360 N.3   357  ARG357     -0.1245
    180  CA         2.7210  -10.2540   44.9080 C.3   357  ARG357      0.1563
    181  C          3.4280  -11.5910   45.1020 C.2   357  ARG357      0.2260
    182  O          4.5930  -11.7360   44.7380 O.2   357  ARG357     -0.2867
    183  CB         3.0010   -9.3230   46.0820 C.3   357  ARG357      0.0307
    184  CG         4.4810   -9.1540   46.3960 C.3   357  ARG357      0.0489
    185  CD         4.6870   -8.0320   47.3830 C.3   357  ARG357      0.2205
    186  NE         4.4620   -6.7350   46.7580 N.pl3 357  ARG357     -0.0865
    187  CZ         5.3530   -6.1230   45.9820 C.cat 357  ARG357      0.5346
    188  NH1        6.5390   -6.6900   45.7470 N.pl3 357  ARG357      0.1354
    189  NH2        5.0540   -4.9430   45.4240 N.pl3 357  ARG357      0.1354
    190  N          4.9640  -12.7310   41.8340 N.3   360  PHE360     -0.1227
    191  CA         5.6790  -11.7480   41.0260 C.3   360  PHE360      0.1736
    192  C          7.0070  -12.3250   40.5000 C.2   360  PHE360      0.2595
    193  O          7.3620  -12.1450   39.3190 O.2   360  PHE360     -0.2718
    194  CB         6.0410  -10.5110   41.8400 C.3   360  PHE360      0.0547
    195  CG         4.9240   -9.5010   41.9840 C.ar  360  PHE360     -0.0202
    196  CD1        3.6460   -9.7520   41.4660 C.ar  360  PHE360     -0.0042
    197  CD2        5.1650   -8.3010   42.6520 C.ar  360  PHE360     -0.0042
    198  CE1        2.6230   -8.7930   41.6210 C.ar  360  PHE360     -0.0003
    199  CE2        4.1630   -7.3440   42.8140 C.ar  360  PHE360     -0.0003
    200  CZ         2.8810   -7.6040   42.2900 C.ar  360  PHE360     -0.0000
    201  N          7.6950  -13.0700   41.3760 N.am  361  TYR361     -0.1976
    202  CA         9.0160  -13.6120   41.0580 C.3   361  TYR361      0.1639
    203  C          9.1980  -15.1300   41.0380 C.2   361  TYR361      0.2290
    204  O         10.3340  -15.6420   41.1060 O.2   361  TYR361     -0.2864
    205  CB        10.0320  -12.9940   42.0130 C.3   361  TYR361      0.0560
    206  CG        10.0050  -11.4850   42.0760 C.ar  361  TYR361     -0.0198
    207  CD1       10.1240  -10.7060   40.9210 C.ar  361  TYR361     -0.0009
    208  CD2        9.8950  -10.8600   43.2840 C.ar  361  TYR361     -0.0009
    209  CE1       10.1340   -9.3160   40.9980 C.ar  361  TYR361      0.0417
    210  CE2        9.9000   -9.4490   43.3810 C.ar  361  TYR361      0.0417
    211  CZ        10.0230   -8.7060   42.2340 C.ar  361  TYR361      0.1957
    212  OH        10.0570   -7.3210   42.3540 O.3   361  TYR361     -0.2866
@<TRIPOS>BOND
     1    43    44    1
     2    44    45    1
     3    44    47    1
     4    45    46    2
     5    47    48    1
     6    48    49    1
     7     1     2    1
     8    52    53    1
     9    86    87    1
    10    66    67    1
    11   134   131    1
    12   134   135    1
    13    41    42    2
    14    41    40    1
    15   130   131    1
    16   131   132    1
    17     2     3    1
    18     2     5    1
    19     4     3    2
    20     3     6   am
    21    10     7    1
    22    10    11    1
    23     6    12    1
    24     6     7    1
    25    12    11    1
    26     7     8    1
    27    49    50    2
    28    49    51   am
    29   145   143   ar
    30   145   146   ar
    31    40    39    1
    32   143   141   ar
    33    87    90    1
    34    87    88    1
    35    90    91    1
    36    53    56    1
    37    53    54    1
    38   136   132   am
    39   136   137    1
    40    67    70    1
    41    67    68    1
    42   132   133    2
    43   139   138    2
    44    55    54    2
    45    13     8   am
    46    13    14    1
    47   147   146    1
    48    56    57    1
    49     8     9    2
    50   146   144   ar
    51    70    71    1
    52   141   140    1
    53   141   142   ar
    54   140   137    1
    55    16    15    2
    56    91    92    1
    57    88    89    2
    58    68    69    2
    59   137   138    1
    60    92    93    1
    61    20    19    1
    62    93    94    2
    63   138   148   am
    64   174   173    2
    65    33    32    1
    66    33    34    1
    67    15    14    1
    68    15    21   am
    69   144   142   ar
    70    14    17    1
    71    96    94    1
    72    94    95    1
    73    32    29    1
    74   171   172    1
    75    71    73   ar
    76    71    72   ar
    77   166   165    2
    78    57    59   ar
    79    57    58   ar
    80    37    36    1
    81    17    18    1
    82   172   173    1
    83   172   175    1
    84   165   164    1
    85   108   109    1
    86   108   105    1
    87    62    59   ar
    88    62    64   ar
    89    73    75   ar
    90    18    19    1
    91   148   149    1
    92   104   105    1
    93    21    22    1
    94    28    29    1
    95    28    23   am
    96   151   150    2
    97    59    61   ar
    98    22    23    1
    99    22    25    1
   100    72    74   ar
   101    58    60   ar
   102   149   150    1
   103    29    30    1
   104    34    35    1
   105   105   106    1
   106    30    31    2
   107    36    35    2
   108    36    38    1
   109    23    24    2
   110    26    25    1
   111   150   152   am
   112    64    65   ar
   113   176   175    1
   114   176   178    1
   115   167   164    1
   116   167   168    1
   117   175   177    1
   118   125   127   ar
   119   125   123   ar
   120    75    74   ar
   121   164   163    1
   122   122   123    1
   123   122   119    1
   124   127   128   ar
   125   123   124   ar
   126    25    27    1
   127    61    60   ar
   128    61    63   ar
   129    97    98    1
   130   128   126   ar
   131   128   129    1
   132   124   126   ar
   133   163   154   am
   134   102   101    1
   135   106   107    2
   136   106   110   am
   137   169   168    1
   138   155   154    2
   139   152   153    1
   140    65    63   ar
   141   154   153    1
   142   168   170    1
   143   121   120    2
   144   120   119    1
   145    98   101    1
   146    98    99    1
   147   119   118    1
   148   110   111    1
   149   153   156    1
   150   101   103    1
   151   193   192    2
   152    84    82   ar
   153    84    85   ar
   154   118   116   am
   155    82    81   ar
   156    85    83   ar
   157    99   100    2
   158   111   112    1
   159   192   191    1
   160   192   201   am
   161   156   157    1
   162    81    83   ar
   163    81    80    1
   164    76    77    1
   165   207   209   ar
   166   207   206   ar
   167   112   114   am
   168   112   113    2
   169   116   117    2
   170   116   115    1
   171   209   211   ar
   172   191   190    1
   173   191   194    1
   174   203   202    1
   175   203   204    2
   176   202   201    1
   177   202   205    1
   178   114   115    1
   179   157   158    1
   180   196   198   ar
   181   196   195   ar
   182    80    77    1
   183   198   200   ar
   184   194   195    1
   185   195   197   ar
   186   205   206    1
   187    77    78    1
   188   206   208   ar
   189   211   212    1
   190   211   210   ar
   191   200   199   ar
   192   197   199   ar
   193   159   158    1
   194   159   160    2
   195    78    79    2
   196   208   210   ar
   197   162   160    1
   198   160   161    1
   199   179   180    1
   200   182   181    2
   201   180   181    1
   202   180   183    1
   203   189   187    1
   204   188   187    1
   205   187   186    2
   206   183   184    1
   207   184   185    1
   208   186   185    1
