@<TRIPOS>MOLECULE
tmp/2hseA02.pdb
 105 99 0 0 0
SMALL
GASTEIGER

@<TRIPOS>ATOM
      1  N        -60.7660  -49.6840   64.3650 N.3    54  ARG54      -0.1231
      2  CA       -60.4460  -50.4000   65.6050 C.3    54  ARG54       0.1694
      3  C        -59.2200  -49.9260   66.3850 C.2    54  ARG54       0.2592
      4  O        -59.3310  -49.4600   67.5340 O.2    54  ARG54      -0.2718
      5  CB       -60.2490  -51.8870   65.3160 C.3    54  ARG54       0.0321
      6  CG       -61.4890  -52.7530   65.3170 C.3    54  ARG54       0.0489
      7  CD       -61.2510  -53.8840   64.3600 C.3    54  ARG54       0.2205
      8  NE       -61.2250  -53.3130   63.0250 N.pl3  54  ARG54      -0.0865
      9  CZ       -62.3200  -52.9850   62.3480 C.cat  54  ARG54       0.5346
     10  NH1      -62.2120  -52.4440   61.1490 N.pl3  54  ARG54       0.1354
     11  NH2      -63.5230  -53.2410   62.8570 N.pl3  54  ARG54       0.1354
     12  N        -58.0400  -50.0380   65.7750 N.am   55  THR55      -0.1953
     13  CA       -56.8690  -49.6650   66.5420 C.3    55  THR55       0.1897
     14  C        -56.7800  -48.1960   66.9370 C.2    55  THR55       0.2313
     15  O        -56.2660  -47.8870   68.0150 O.2    55  THR55      -0.2863
     16  CB       -55.5540  -50.2700   65.9200 C.3    55  THR55       0.1794
     17  OG1      -54.4410  -49.4010   66.1410 O.3    55  THR55      -0.2208
     18  CG2      -55.7240  -50.5790   64.4920 C.3    55  THR55       0.0378
     19  N        -59.8740  -47.7520   69.8240 N.3    58  SER58      -0.1217
     20  CA       -59.5900  -48.4720   71.0530 C.3    58  SER58       0.1889
     21  C        -58.4210  -47.7900   71.7570 C.2    58  SER58       0.2288
     22  O        -58.5010  -47.5260   72.9560 O.2    58  SER58      -0.2866
     23  CB       -59.2400  -49.9410   70.7850 C.3    58  SER58       0.2089
     24  OG       -58.0210  -50.0520   70.0780 O.3    58  SER58      -0.2183
     25  N        -47.4190  -54.9020   63.4000 N.3   134  HIS134     -0.1241
     26  CA       -48.6220  -54.3970   64.0350 C.3   134  HIS134      0.1621
     27  C        -48.6650  -55.0170   65.4260 C.2   134  HIS134      0.2264
     28  O        -49.6100  -55.7260   65.7850 O.2   134  HIS134     -0.2867
     29  CB       -49.8410  -54.7960   63.2100 C.3   134  HIS134      0.0745
     30  CG       -51.1060  -54.0950   63.5990 C.ar  134  HIS134      0.0817
     31  ND1      -51.2520  -53.4200   64.7920 N.ar  134  HIS134     -0.2268
     32  CD2      -52.3190  -54.0570   62.9950 C.ar  134  HIS134      0.1154
     33  CE1      -52.5000  -52.9990   64.9080 C.ar  134  HIS134      0.1986
     34  NE2      -53.1680  -53.3750   63.8290 N.ar  134  HIS134     -0.2212
     35  N        -51.5760  -55.2550   67.8830 N.3   137  GLN137     -0.1245
     36  CA       -52.6270  -56.1140   67.3510 C.3   137  GLN137      0.1566
     37  C        -52.3500  -57.5400   67.8320 C.2   137  GLN137      0.2260
     38  O        -53.2550  -58.2590   68.2350 O.2   137  GLN137     -0.2867
     39  CB       -52.6310  -56.0480   65.8190 C.3   137  GLN137      0.0367
     40  CG       -54.0340  -55.9580   65.2110 C.3   137  GLN137      0.0905
     41  CD       -54.7410  -57.2650   65.2660 C.2   137  GLN137      0.2608
     42  OE1      -55.9640  -57.3340   65.3620 O.2   137  GLN137     -0.2717
     43  NE2      -53.9670  -58.3340   65.1990 N.am  137  GLN137     -0.0878
     44  N        -53.2910  -58.1180   71.5300 N.3   140  LEU140     -0.1245
     45  CA       -54.6970  -58.4490   71.7740 C.3   140  LEU140      0.1561
     46  C        -55.0720  -59.8300   71.2350 C.2   140  LEU140      0.2260
     47  O        -55.8890  -60.5270   71.8280 O.2   140  LEU140     -0.2867
     48  CB       -55.6230  -57.3710   71.2020 C.3   140  LEU140      0.0270
     49  CG       -55.9150  -57.2740   69.7000 C.3   140  LEU140      0.0019
     50  CD1      -57.1550  -58.0900   69.3520 C.3   140  LEU140      0.0001
     51  CD2      -56.1320  -55.8150   69.3450 C.3   140  LEU140      0.0001
     52  N        -60.2630  -62.6860   63.4640 N.3   265  HIS265     -0.1227
     53  CA       -60.0340  -61.8290   62.3220 C.3   265  HIS265      0.1737
     54  C        -59.6780  -60.4850   62.9000 C.2   265  HIS265      0.2438
     55  O        -60.4330  -59.9450   63.7170 O.2   265  HIS265     -0.2733
     56  CB       -61.3120  -61.7040   61.4730 C.3   265  HIS265      0.0758
     57  CG       -61.0790  -61.1430   60.1020 C.ar  265  HIS265      0.0818
     58  ND1      -60.3120  -60.0200   59.8780 N.ar  265  HIS265     -0.2268
     59  CD2      -61.5040  -61.5590   58.8840 C.ar  265  HIS265      0.1154
     60  CE1      -60.2730  -59.7690   58.5780 C.ar  265  HIS265      0.1986
     61  NE2      -60.9870  -60.6890   57.9530 N.ar  265  HIS265     -0.2212
     62  N        -58.5110  -59.9380   62.5180 N.am  266  PRO266     -0.2718
     63  CA       -58.0910  -58.6310   63.0210 C.3   266  PRO266      0.1535
     64  C        -59.0540  -57.5270   62.5640 C.2   266  PRO266      0.2598
     65  O        -59.0810  -56.4350   63.1410 O.2   266  PRO266     -0.2715
     66  CB       -56.6940  -58.4680   62.4330 C.3   266  PRO266      0.0310
     67  CG       -56.7530  -59.3050   61.1720 C.3   266  PRO266      0.0237
     68  CD       -57.4820  -60.5190   61.6420 C.3   266  PRO266      0.0939
     69  N        -59.8370  -57.8300   61.5270 N.am  267  LEU267     -0.1978
     70  CA       -60.8190  -56.8970   60.9600 C.3   267  LEU267      0.1596
     71  C        -60.1700  -55.6290   60.4080 C.2   267  LEU267      0.2287
     72  O        -59.0840  -55.2450   60.8230 O.2   267  LEU267     -0.2864
     73  CB       -61.8810  -56.5260   62.0040 C.3   267  LEU267      0.0297
     74  CG       -62.6690  -57.7130   62.5570 C.3   267  LEU267      0.0022
     75  CD1      -63.6880  -57.2580   63.5860 C.3   267  LEU267      0.0001
     76  CD2      -63.3280  -58.4410   61.4220 C.3   267  LEU267      0.0001
     77  N        -62.6980  -60.5450   70.2240 N.3   288  GLN288     -0.1231
     78  CA       -61.3060  -60.3170   69.9560 C.3   288  GLN288      0.1698
     79  C        -61.0800  -58.7950   69.9110 C.2   288  GLN288      0.2592
     80  O        -60.2070  -58.2630   70.6110 O.2   288  GLN288     -0.2718
     81  CB       -60.9530  -60.9840   68.6250 C.3   288  GLN288      0.0381
     82  CG       -59.6030  -60.6180   68.1040 C.3   288  GLN288      0.0905
     83  CD       -59.3110  -61.2340   66.7610 C.2   288  GLN288      0.2608
     84  OE1      -60.2190  -61.6740   66.0410 O.2   288  GLN288     -0.2717
     85  NE2      -58.0340  -61.2620   66.3990 N.am  288  GLN288     -0.0878
     86  N        -61.8850  -58.0940   69.1130 N.am  289  ALA289     -0.1980
     87  CA       -61.7500  -56.6470   68.9950 C.3   289  ALA289      0.1597
     88  C        -61.9490  -55.9520   70.3410 C.2   289  ALA289      0.2287
     89  O        -61.2400  -55.0020   70.6600 O.2   289  ALA289     -0.2864
     90  CB       -62.7320  -56.1020   67.9510 C.3   289  ALA289      0.0319
     91  N        -58.9540  -55.6560   72.5490 N.3   292  GLY292     -0.1225
     92  CA       -57.9890  -54.6320   72.2070 C.3   292  GLY292      0.1811
     93  C        -57.9770  -53.5910   73.3080 C.2   292  GLY292      0.2280
     94  O        -56.9400  -53.0170   73.6470 O.2   292  GLY292     -0.2866
     95  N        -54.4230  -52.7190   75.2370 N.3   296  ARG296     -0.1245
     96  CA       -53.8680  -51.3900   75.0540 C.3   296  ARG296      0.1563
     97  C        -53.7560  -50.5860   76.3350 C.2   296  ARG296      0.2260
     98  O        -52.8150  -49.7880   76.4780 O.2   296  ARG296     -0.2867
     99  CB       -54.6240  -50.6530   73.9450 C.3   296  ARG296      0.0307
    100  CG       -54.4900  -51.3910   72.6210 C.3   296  ARG296      0.0489
    101  CD       -54.9990  -50.6370   71.3920 C.3   296  ARG296      0.2205
    102  NE       -54.3760  -51.2310   70.2100 N.pl3 296  ARG296     -0.0865
    103  CZ       -55.0040  -51.9930   69.3230 C.cat 296  ARG296      0.5346
    104  NH1      -54.3330  -52.4960   68.3070 N.pl3 296  ARG296      0.1354
    105  NH2      -56.3060  -52.2200   69.4280 N.pl3 296  ARG296      0.1354
@<TRIPOS>BOND
     1    61    60   ar
     2    61    59   ar
     3    60    58   ar
     4    59    57   ar
     5    58    57   ar
     6    57    56    1
     7    71    72    2
     8    71    70    1
     9    70    69    1
    10    70    73    1
    11    10     9    1
    12    67    68    1
    13    67    66    1
    14    76    74    1
    15    56    53    1
    16    69    64   am
    17    68    62    1
    18    73    74    1
    19    53    54    1
    20    53    52    1
    21     9    11    1
    22     9     8    2
    23    66    63    1
    24    62    54   am
    25    62    63    1
    26    74    75    1
    27    64    63    1
    28    64    65    2
    29    54    55    2
    30    32    30   ar
    31    32    34   ar
    32     8     7    1
    33    29    30    1
    34    29    26    1
    35    25    26    1
    36    30    31   ar
    37    34    33   ar
    38    26    27    1
    39     7     6    1
    40     1     2    1
    41    18    16    1
    42    31    33   ar
    43    43    41   am
    44    40    41    1
    45    40    39    1
    46    41    42    2
    47     5     6    1
    48     5     2    1
    49    27    28    2
    50     2     3    1
    51    12     3   am
    52    12    13    1
    53    39    36    1
    54    16    17    1
    55    16    13    1
    56    84    83    2
    57     3     4    2
    58    85    83   am
    59    13    14    1
    60    83    82    1
    61    14    15    2
    62    36    37    1
    63    36    35    1
    64    37    38    2
    65    90    87    1
    66    82    81    1
    67   104   103    1
    68    81    78    1
    69    87    86    1
    70    87    88    1
    71    86    79   am
    72   103   105    1
    73   103   102    2
    74    51    49    1
    75    50    49    1
    76    49    48    1
    77    19    20    1
    78    79    78    1
    79    79    80    2
    80    78    77    1
    81    24    23    1
    82   102   101    1
    83    88    89    2
    84    23    20    1
    85    20    21    1
    86    48    45    1
    87    46    45    1
    88    46    47    2
    89   101   100    1
    90    44    45    1
    91    21    22    2
    92    92    91    1
    93    92    93    1
    94   100    99    1
    95    93    94    2
    96    99    96    1
    97    96    95    1
    98    96    97    1
    99    97    98    2
