@<TRIPOS>MOLECULE
tmp/2hseC01.pdb
 120 116 0 0 0
SMALL
GASTEIGER

@<TRIPOS>ATOM
      1  N        -46.4700  -30.5980   12.9730 N.3   105  ARG105     -0.1245
      2  CA       -46.3000  -29.6260   14.0630 C.3   105  ARG105      0.1563
      3  C        -46.2980  -30.5260   15.2980 C.2   105  ARG105      0.2260
      4  O        -47.1970  -31.3550   15.4870 O.2   105  ARG105     -0.2867
      5  CB       -47.4910  -28.6620   14.1480 C.3   105  ARG105      0.0307
      6  CG       -47.3070  -27.4050   15.0380 C.3   105  ARG105      0.0489
      7  CD       -48.6790  -26.7650   15.2590 C.3   105  ARG105      0.2205
      8  NE       -48.7550  -25.2970   15.2600 N.pl3 105  ARG105     -0.0865
      9  CZ       -48.4740  -24.5130   14.2210 C.cat 105  ARG105      0.5346
     10  NH1      -48.5930  -23.2000   14.3220 N.pl3 105  ARG105      0.1354
     11  NH2      -48.0470  -25.0310   13.0860 N.pl3 105  ARG105      0.1354
     12  N        -40.2090  -22.4800   12.7420 N.3   134  HIS134     -0.1241
     13  CA       -41.4940  -22.3230   12.0750 C.3   134  HIS134      0.1621
     14  C        -41.1720  -21.7610   10.6770 C.2   134  HIS134      0.2264
     15  O        -41.5990  -20.6620   10.3180 O.2   134  HIS134     -0.2867
     16  CB       -42.3930  -21.3670   12.8730 C.3   134  HIS134      0.0745
     17  CG       -43.8470  -21.4620   12.5180 C.ar  134  HIS134      0.0817
     18  ND1      -44.3030  -22.1770   11.4310 N.ar  134  HIS134     -0.2268
     19  CD2      -44.9390  -20.8720   13.0640 C.ar  134  HIS134      0.1154
     20  CE1      -45.6120  -22.0240   11.3220 C.ar  134  HIS134      0.1986
     21  NE2      -46.0220  -21.2350   12.2990 N.ar  134  HIS134     -0.2212
     22  N        -43.7800  -20.3880    8.2900 N.3   137  GLN137     -0.1245
     23  CA       -44.3720  -19.1450    8.7850 C.3   137  GLN137      0.1566
     24  C        -43.5740  -17.9760    8.2090 C.2   137  GLN137      0.2260
     25  O        -44.1430  -17.0270    7.6680 O.2   137  GLN137     -0.2867
     26  CB       -44.3530  -19.0660   10.3200 C.3   137  GLN137      0.0367
     27  CG       -44.7940  -17.7030   10.8760 C.3   137  GLN137      0.0905
     28  CD       -46.2650  -17.3560   10.5760 C.2   137  GLN137      0.2608
     29  OE1      -47.1740  -18.0510   11.0230 O.2   137  GLN137     -0.2717
     30  NE2      -46.4940  -16.2770    9.8280 N.am  137  GLN137     -0.0878
     31  N        -41.0040  -17.5780   20.6940 N.3   166  GLY166     -0.1210
     32  CA       -41.5650  -17.4240   19.3660 C.3   166  GLY166      0.1956
     33  C        -40.7780  -18.1150   18.2620 C.2   166  GLY166      0.2612
     34  O        -39.8300  -17.5340   17.7250 O.2   166  GLY166     -0.2717
     35  N        -41.1490  -19.3520   17.9200 N.am  167  ARG167     -0.1965
     36  CA       -40.4670  -20.0540   16.8350 C.3   167  ARG167      0.1729
     37  C        -40.6170  -19.1660   15.5900 C.2   167  ARG167      0.2616
     38  O        -39.7520  -19.1420   14.7100 O.2   167  ARG167     -0.2715
     39  CB       -41.0680  -21.4590   16.6010 C.3   167  ARG167      0.0348
     40  CG       -42.5950  -21.5980   16.7220 C.3   167  ARG167      0.0492
     41  CD       -42.9740  -23.0610   16.4470 C.3   167  ARG167      0.2205
     42  NE       -44.1940  -23.5660   17.0880 N.pl3 167  ARG167     -0.0865
     43  CZ       -45.4360  -23.3950   16.6400 C.cat 167  ARG167      0.5346
     44  NH1      -46.4680  -23.9110   17.2980 N.pl3 167  ARG167      0.1354
     45  NH2      -45.6560  -22.6920   15.5410 N.pl3 167  ARG167      0.1354
     46  N        -41.7100  -18.4080   15.5580 N.am  168  THR168     -0.1951
     47  CA       -41.9910  -17.4950   14.4620 C.3   168  THR168      0.1897
     48  C        -40.8600  -16.4790   14.2510 C.2   168  THR168      0.2313
     49  O        -40.3600  -16.3350   13.1300 O.2   168  THR168     -0.2863
     50  CB       -43.2910  -16.7150   14.7150 C.3   168  THR168      0.1794
     51  OG1      -43.1850  -16.0140   15.9640 O.3   168  THR168     -0.2208
     52  CG2      -44.4840  -17.6630   14.7660 C.3   168  THR168      0.0378
     53  N        -46.1860  -10.1490   18.5840 N.3   228  THR228     -0.1203
     54  CA       -46.1810  -11.5370   19.0060 C.3   228  THR228      0.1994
     55  C        -47.0350  -11.8410   20.2430 C.2   228  THR228      0.2617
     56  O        -47.2790  -10.9630   21.0770 O.2   228  THR228     -0.2717
     57  CB       -44.7140  -11.9540   19.2400 C.3   228  THR228      0.1784
     58  OG1      -44.1840  -12.5110   18.0280 O.3   228  THR228     -0.2211
     59  CG2      -44.5870  -12.9180   20.3920 C.3   228  THR228      0.0376
     60  N        -47.4900  -13.0890   20.3480 N.am  229  ARG229     -0.1979
     61  CA       -48.3010  -13.5350   21.4790 C.3   229  ARG229      0.1597
     62  C        -47.4190  -14.2370   22.4920 C.2   229  ARG229      0.2287
     63  O        -46.4460  -14.8940   22.1200 O.2   229  ARG229     -0.2864
     64  CB       -49.3840  -14.5150   21.0300 C.3   229  ARG229      0.0334
     65  CG       -50.2220  -15.0720   22.1740 C.3   229  ARG229      0.0492
     66  CD       -51.0810  -16.2730   21.7540 C.3   229  ARG229      0.2205
     67  NE       -50.2560  -17.4130   21.3670 N.pl3 229  ARG229     -0.0865
     68  CZ       -50.1970  -18.5660   22.0220 C.cat 229  ARG229      0.5346
     69  NH1      -49.4060  -19.5360   21.5830 N.pl3 229  ARG229      0.1354
     70  NH2      -50.9370  -18.7590   23.1050 N.pl3 229  ARG229      0.1354
     71  N        -46.2700  -17.0560   24.5390 N.3   231  GLN231     -0.1245
     72  CA       -46.4420  -18.5060   24.4560 C.3   231  GLN231      0.1566
     73  C        -46.7450  -19.1350   25.8190 C.2   231  GLN231      0.2260
     74  O        -45.9150  -19.8540   26.3930 O.2   231  GLN231     -0.2867
     75  CB       -45.1970  -19.1370   23.8270 C.3   231  GLN231      0.0367
     76  CG       -44.8100  -18.5280   22.4610 C.3   231  GLN231      0.0905
     77  CD       -45.8880  -18.6800   21.3840 C.2   231  GLN231      0.2608
     78  OE1      -46.2380  -19.7960   20.9890 O.2   231  GLN231     -0.2717
     79  NE2      -46.4130  -17.5520   20.9040 N.am  231  GLN231     -0.0878
     80  N        -47.9450  -21.6690   27.0240 N.3   233  GLU233     -0.1245
     81  CA       -48.1900  -23.1000   26.9450 C.3   233  GLU233      0.1567
     82  C        -46.8000  -23.7130   26.8590 C.2   233  GLU233      0.2260
     83  O        -46.6210  -24.9340   26.9010 O.2   233  GLU233     -0.2867
     84  CB       -48.9900  -23.4370   25.6850 C.3   233  GLU233      0.0388
     85  CG       -48.2160  -23.1730   24.3870 C.3   233  GLU233      0.1160
     86  CD       -48.9490  -22.2550   23.4120 C.2   233  GLU233      0.3649
     87  OE1      -49.4510  -21.1930   23.8470 O.co2 233  GLU233     -0.2457
     88  OE2      -49.0060  -22.5860   22.2050 O.co2 233  GLU233     -0.2457
     89  N        -48.3750   -9.9340   12.4170 N.3   265  HIS265     -0.1227
     90  CA       -48.5150  -10.8180   13.5800 C.3   265  HIS265      0.1737
     91  C        -48.8140  -12.2460   13.0830 C.2   265  HIS265      0.2438
     92  O        -49.7890  -12.4760   12.3670 O.2   265  HIS265     -0.2733
     93  CB       -49.6230  -10.3110   14.5190 C.3   265  HIS265      0.0758
     94  CG       -49.7270  -11.0730   15.8080 C.ar  265  HIS265      0.0818
     95  ND1      -50.1140  -10.4840   16.9930 N.ar  265  HIS265     -0.2268
     96  CD2      -49.5170  -12.3820   16.0930 C.ar  265  HIS265      0.1154
     97  CE1      -50.1340  -11.3940   17.9510 C.ar  265  HIS265      0.1986
     98  NE2      -49.7790  -12.5540   17.4310 N.ar  265  HIS265     -0.2212
     99  N        -47.9720  -13.2230   13.4550 N.am  266  PRO266     -0.2718
    100  CA       -48.2350  -14.5860   12.9850 C.3   266  PRO266      0.1535
    101  C        -49.6110  -15.0820   13.4090 C.2   266  PRO266      0.2598
    102  O        -50.2150  -15.9220   12.7360 O.2   266  PRO266     -0.2715
    103  CB       -47.1020  -15.3940   13.6130 C.3   266  PRO266      0.0310
    104  CG       -46.8700  -14.6740   14.9130 C.3   266  PRO266      0.0237
    105  CD       -46.9170  -13.2140   14.4850 C.3   266  PRO266      0.0939
    106  N        -50.0900  -14.5480   14.5300 N.am  267  LEU267     -0.1964
    107  CA       -51.3910  -14.9090   15.0780 C.3   267  LEU267      0.1713
    108  C        -51.3690  -16.3280   15.6650 C.2   267  LEU267      0.2458
    109  O        -50.5150  -17.1390   15.3170 O.2   267  LEU267     -0.2730
    110  CB       -52.4720  -14.7460   13.9880 C.3   267  LEU267      0.0310
    111  CG       -53.2730  -13.4140   13.9170 C.3   267  LEU267      0.0022
    112  CD1      -52.5320  -12.2550   14.5720 C.3   267  LEU267      0.0001
    113  CD2      -53.5920  -13.0690   12.4650 C.3   267  LEU267      0.0001
    114  N        -52.2990  -16.6370   16.5830 N.am  268  PRO268     -0.2727
    115  CA       -53.3410  -15.7250   17.0720 C.3   268  PRO268      0.1402
    116  C        -52.8560  -14.6710   18.0550 C.2   268  PRO268      0.2269
    117  O        -51.8610  -14.8490   18.7580 O.2   268  PRO268     -0.2865
    118  CB       -54.3450  -16.6680   17.7140 C.3   268  PRO268      0.0296
    119  CG       -53.4450  -17.7160   18.3000 C.3   268  PRO268      0.0237
    120  CD       -52.4740  -17.9820   17.1630 C.3   268  PRO268      0.0939
@<TRIPOS>BOND
     1    25    24    2
     2    24    23    1
     3    22    23    1
     4    23    26    1
     5    30    28   am
     6    15    14    2
     7    26    27    1
     8    28    27    1
     9    28    29    2
    10    14    13    1
    11    20    18   ar
    12    20    21   ar
    13    18    17   ar
    14    13    12    1
    15    13    16    1
    16    21    19   ar
    17    92    91    2
    18    89    90    1
    19   113   111    1
    20    17    16    1
    21    17    19   ar
    22   102   101    2
    23     1     2    1
    24   100   101    1
    25   100    99    1
    26   100   103    1
    27    91    99   am
    28    91    90    1
    29    11     9    1
    30    49    48    2
    31   101   106   am
    32    99   105    1
    33    90    93    1
    34   103   104    1
    35   111   110    1
    36   111   112    1
    37   110   107    1
    38     2     5    1
    39     2     3    1
    40     5     6    1
    41     9    10    1
    42     9     8    2
    43    48    47    1
    44    47    50    1
    45    47    46    1
    46   105   104    1
    47    93    94    1
    48   106   107    1
    49    38    37    2
    50    50    52    1
    51    50    51    1
    52     6     7    1
    53   107   108    1
    54     7     8    1
    55     3     4    2
    56   109   108    2
    57    45    43    1
    58    46    37   am
    59    37    36    1
    60   108   114   am
    61    94    96   ar
    62    94    95   ar
    63    96    98   ar
    64    41    40    1
    65    41    42    1
    66   114   115    1
    67   114   120    1
    68    39    40    1
    69    39    36    1
    70    43    42    2
    71    43    44    1
    72    36    35    1
    73    95    97   ar
    74   115   118    1
    75   115   116    1
    76   120   119    1
    77    98    97   ar
    78   118   119    1
    79    34    33    2
    80    35    33   am
    81    58    57    1
    82   116   117    2
    83    33    32    1
    84    53    54    1
    85    54    57    1
    86    54    55    1
    87    57    59    1
    88    32    31    1
    89    55    60   am
    90    55    56    2
    91    60    61    1
    92    79    77   am
    93    78    77    2
    94    64    61    1
    95    64    65    1
    96    67    66    1
    97    67    68    2
    98    77    76    1
    99    61    62    1
   100    69    68    1
   101    66    65    1
   102    68    70    1
   103    63    62    2
   104    88    86   ar
   105    76    75    1
   106    86    87   ar
   107    86    85    1
   108    75    72    1
   109    85    84    1
   110    72    71    1
   111    72    73    1
   112    84    81    1
   113    73    74    2
   114    82    83    2
   115    82    81    1
   116    81    80    1
