@<TRIPOS>MOLECULE
tmp/2ht1E01.pdb
 144 139 0 0 0
SMALL
GASTEIGER

@<TRIPOS>ATOM
      1  N        -49.0560  -46.9900   -6.0410 N.3   117  MET117     -0.1230
      2  CA       -47.7260  -46.7610   -6.5790 C.3   117  MET117      0.1702
      3  C        -46.6960  -47.1660   -5.5460 C.2   117  MET117      0.2592
      4  O        -46.2480  -46.3450   -4.7440 O.2   117  MET117     -0.2718
      5  CB       -47.5630  -45.2870   -6.9460 C.3   117  MET117      0.0401
      6  CG       -48.3910  -44.8670   -8.1400 C.3   117  MET117      0.0596
      7  SD       -47.8120  -45.6840   -9.6350 S.3   117  MET117     -0.1393
      8  CE       -46.3630  -44.6980  -10.0090 C.3   117  MET117      0.0692
      9  N        -46.3250  -48.4410   -5.5620 N.am  118  GLU118     -0.1966
     10  CA       -45.4600  -48.9850   -4.5260 C.3   118  GLU118      0.1733
     11  C        -43.9810  -48.7830   -4.8540 C.2   118  GLU118      0.2616
     12  O        -43.5870  -48.8010   -6.0270 O.2   118  GLU118     -0.2715
     13  CB       -45.7880  -50.4550   -4.2710 C.3   118  GLU118      0.0429
     14  CG       -45.8530  -50.8020   -2.7950 C.3   118  GLU118      0.1163
     15  CD       -47.1360  -51.5250   -2.4200 C.2   118  GLU118      0.3649
     16  OE1      -47.4740  -52.5320   -3.0780 O.co2 118  GLU118     -0.2457
     17  OE2      -47.8100  -51.0840   -1.4640 O.co2 118  GLU118     -0.2457
     18  N        -43.1880  -48.5760   -3.7990 N.am  119  ARG119     -0.1963
     19  CA       -41.7610  -48.2370   -3.8910 C.3   119  ARG119      0.1729
     20  C        -40.9220  -49.3420   -4.5270 C.2   119  ARG119      0.2617
     21  O        -41.1550  -50.5290   -4.2900 O.2   119  ARG119     -0.2715
     22  CB       -41.2090  -47.8820   -2.5050 C.3   119  ARG119      0.0348
     23  CG       -41.6600  -46.5210   -1.9880 C.3   119  ARG119      0.0492
     24  CD       -41.2470  -46.2870   -0.5400 C.3   119  ARG119      0.2205
     25  NE       -42.2120  -46.8290    0.4180 N.pl3 119  ARG119     -0.0865
     26  CZ       -42.0370  -47.9400    1.1300 C.cat 119  ARG119      0.5346
     27  NH1      -40.9250  -48.6540    1.0070 N.pl3 119  ARG119      0.1354
     28  NH2      -42.9800  -48.3400    1.9730 N.pl3 119  ARG119      0.1354
     29  N        -39.9410  -48.9390   -5.3320 N.am  120  GLY120     -0.1940
     30  CA       -39.1430  -49.8840   -6.1050 C.3   120  GLY120      0.2014
     31  C        -37.7860  -50.2370   -5.5230 C.2   120  GLY120      0.2638
     32  O        -37.1260  -51.1610   -6.0030 O.2   120  GLY120     -0.2714
     33  N        -37.3640  -49.5140   -4.4900 N.am  121  ASN121     -0.1972
     34  CA       -36.0370  -49.7280   -3.9200 C.3   121  ASN121      0.1688
     35  C        -36.0410  -50.4910   -2.6000 C.2   121  ASN121      0.2292
     36  O        -36.9000  -50.2840   -1.7400 O.2   121  ASN121     -0.2864
     37  CB       -35.2780  -48.4040   -3.7880 C.3   121  ASN121      0.1181
     38  CG       -33.8650  -48.5850   -3.2530 C.2   121  ASN121      0.2629
     39  OD1      -32.9980  -49.1460   -3.9260 O.2   121  ASN121     -0.2716
     40  ND2      -33.6260  -48.1000   -2.0420 N.am  121  ASN121     -0.0877
     41  N        -42.8820  -52.7570  -13.4470 N.3   147  VAL147     -0.1245
     42  CA       -42.1720  -52.0380  -14.4980 C.3   147  VAL147      0.1561
     43  C        -40.6740  -52.2340  -14.3010 C.2   147  VAL147      0.2260
     44  O        -40.1340  -51.9080  -13.2460 O.2   147  VAL147     -0.2867
     45  CB       -42.5390  -50.5530  -14.5090 C.3   147  VAL147      0.0252
     46  CG1      -41.8440  -49.8450  -15.6510 C.3   147  VAL147      0.0019
     47  CG2      -44.0460  -50.3920  -14.6380 C.3   147  VAL147      0.0019
     48  N        -36.7220  -51.9440  -16.0380 N.3   149  PRO149     -0.2116
     49  CA       -35.6150  -51.6230  -16.9360 C.3   149  PRO149      0.1372
     50  C        -34.6320  -52.7880  -17.0470 C.2   149  PRO149      0.2244
     51  O        -34.7140  -53.7390  -16.2640 O.2   149  PRO149     -0.2868
     52  CB       -34.9340  -50.4360  -16.2440 C.3   149  PRO149      0.0268
     53  CG       -35.9000  -49.9610  -15.2160 C.3   149  PRO149      0.0207
     54  CD       -36.6360  -51.1720  -14.7890 C.3   149  PRO149      0.0892
     55  N        -38.9880  -51.8720  -19.9850 N.3   291  ILE291     -0.1231
     56  CA       -38.9270  -50.4450  -20.2410 C.3   291  ILE291      0.1692
     57  C        -37.4780  -50.0470  -20.5510 C.2   291  ILE291      0.2592
     58  O        -36.5400  -50.7160  -20.1000 O.2   291  ILE291     -0.2718
     59  CB       -39.5470  -49.6460  -19.0500 C.3   291  ILE291      0.0266
     60  CG1      -39.9400  -48.2290  -19.4770 C.3   291  ILE291      0.0019
     61  CG2      -38.6380  -49.6760  -17.8210 C.3   291  ILE291      0.0020
     62  CD1      -40.8940  -47.5270  -18.5180 C.3   291  ILE291      0.0001
     63  N        -37.3110  -48.9780  -21.3360 N.am  292  ASP292     -0.1974
     64  CA       -36.0000  -48.5250  -21.8210 C.3   292  ASP292      0.1709
     65  C        -35.1990  -49.7030  -22.3600 C.2   292  ASP292      0.2293
     66  O        -34.1420  -50.0400  -21.8300 O.2   292  ASP292     -0.2864
     67  CB       -35.2140  -47.7970  -20.7190 C.3   292  ASP292      0.1436
     68  CG       -35.9380  -46.5760  -20.1870 C.2   292  ASP292      0.3671
     69  OD1      -36.2020  -45.6410  -20.9730 O.co2 292  ASP292     -0.2456
     70  OD2      -36.2310  -46.5500  -18.9730 O.co2 292  ASP292     -0.2456
     71  N        -41.8830  -49.0000  -25.4680 N.3   299  GLU299     -0.1245
     72  CA       -42.3560  -47.8150  -24.7550 C.3   299  GLU299      0.1567
     73  C        -43.8390  -47.5650  -25.0000 C.2   299  GLU299      0.2260
     74  O        -44.5640  -47.1730  -24.0830 O.2   299  GLU299     -0.2867
     75  CB       -41.5310  -46.5750  -25.1160 C.3   299  GLU299      0.0388
     76  CG       -40.1120  -46.5600  -24.5290 C.3   299  GLU299      0.1160
     77  CD       -40.0600  -46.4030  -23.0030 C.2   299  GLU299      0.3649
     78  OE1      -41.0710  -46.0010  -22.3840 O.co2 299  GLU299     -0.2457
     79  OE2      -38.9860  -46.6760  -22.4210 O.co2 299  GLU299     -0.2457
     80  N        -45.8140  -50.0800  -23.0000 N.3   302  TYR302     -0.1227
     81  CA       -45.8030  -49.5820  -21.6330 C.3   302  TYR302      0.1736
     82  C        -46.8210  -48.4650  -21.4630 C.2   302  TYR302      0.2595
     83  O        -47.7520  -48.5880  -20.6720 O.2   302  TYR302     -0.2718
     84  CB       -44.4110  -49.0910  -21.2150 C.3   302  TYR302      0.0548
     85  CG       -44.4290  -48.3190  -19.9090 C.ar  302  TYR302     -0.0200
     86  CD1      -44.5800  -48.9820  -18.6930 C.ar  302  TYR302     -0.0009
     87  CD2      -44.3160  -46.9290  -19.8910 C.ar  302  TYR302     -0.0009
     88  CE1      -44.6140  -48.2880  -17.4920 C.ar  302  TYR302      0.0417
     89  CE2      -44.3480  -46.2240  -18.6910 C.ar  302  TYR302      0.0417
     90  CZ       -44.4970  -46.9150  -17.4950 C.ar  302  TYR302      0.1957
     91  OH       -44.5290  -46.2400  -16.2950 O.3   302  TYR302     -0.2866
     92  N        -46.6490  -47.3880  -22.2230 N.am  303  GLU303     -0.1979
     93  CA       -47.4910  -46.2100  -22.0730 C.3   303  GLU303      0.1602
     94  C        -48.9610  -46.5210  -22.3180 C.2   303  GLU303      0.2287
     95  O        -49.8360  -45.7840  -21.8720 O.2   303  GLU303     -0.2864
     96  CB       -46.9880  -45.0660  -22.9540 C.3   303  GLU303      0.0415
     97  CG       -45.9020  -44.2360  -22.2730 C.3   303  GLU303      0.1163
     98  CD       -44.8360  -43.7240  -23.2270 C.2   303  GLU303      0.3649
     99  OE1      -45.1640  -43.3820  -24.3850 O.co2 303  GLU303     -0.2457
    100  OE2      -43.6610  -43.6560  -22.8090 O.co2 303  GLU303     -0.2457
    101  N        -49.8290  -48.2330  -18.9260 N.3   306  LYS306     -0.1245
    102  CA       -49.4090  -47.3980  -17.8020 C.3   306  LYS306      0.1561
    103  C        -50.5720  -47.0870  -16.8590 C.2   306  LYS306      0.2260
    104  O        -51.4390  -46.2590  -17.1580 O.2   306  LYS306     -0.2867
    105  CB       -48.7410  -46.1090  -18.2940 C.3   306  LYS306      0.0271
    106  CG       -47.7860  -45.4880  -17.2850 C.3   306  LYS306      0.0035
    107  CD       -47.4520  -44.0480  -17.6360 C.3   306  LYS306      0.0206
    108  CE       -46.5930  -43.4110  -16.5540 C.3   306  LYS306      0.1093
    109  NZ       -46.7510  -41.9310  -16.5140 N.3   306  LYS306     -0.1314
    110  N        -41.9450  -49.7120   -9.8950 N.3   314  HIS314     -0.1226
    111  CA       -41.0020  -49.4340  -10.9700 C.3   314  HIS314      0.1752
    112  C        -39.5990  -50.0070  -10.7350 C.2   314  HIS314      0.2596
    113  O        -38.6390  -49.6150  -11.4080 O.2   314  HIS314     -0.2718
    114  CB       -40.9410  -47.9300  -11.2470 C.3   314  HIS314      0.0759
    115  CG       -42.2290  -47.3550  -11.7440 C.ar  314  HIS314      0.0818
    116  ND1      -42.7230  -46.1450  -11.3070 N.ar  314  HIS314     -0.2268
    117  CD2      -43.1310  -47.8280  -12.6350 C.ar  314  HIS314      0.1154
    118  CE1      -43.8680  -45.8930  -11.9150 C.ar  314  HIS314      0.1986
    119  NE2      -44.1400  -46.9010  -12.7230 N.ar  314  HIS314     -0.2212
    120  N        -39.4890  -50.9470   -9.8010 N.am  315  LEU315     -0.1966
    121  CA       -38.2140  -51.5970   -9.4790 C.3   315  LEU315      0.1728
    122  C        -37.1110  -50.6220   -9.0640 C.2   315  LEU315      0.2617
    123  O        -37.3810  -49.4750   -8.6980 O.2   315  LEU315     -0.2715
    124  CB       -37.7270  -52.5000  -10.6270 C.3   315  LEU315      0.0311
    125  CG       -38.3090  -53.9050  -10.8150 C.3   315  LEU315      0.0022
    126  CD1      -37.2650  -54.7980  -11.4640 C.3   315  LEU315      0.0001
    127  CD2      -38.7680  -54.5230   -9.5040 C.3   315  LEU315      0.0001
    128  N        -35.8690  -51.0930   -9.1370 N.am  316  SER316     -0.1936
    129  CA       -34.7290  -50.3700   -8.5870 C.3   316  SER316      0.2055
    130  C        -33.7040  -49.9460   -9.6370 C.2   316  SER316      0.2642
    131  O        -33.4920  -50.6290  -10.6430 O.2   316  SER316     -0.2714
    132  CB       -34.0610  -51.2020   -7.4830 C.3   316  SER316      0.2130
    133  OG       -34.0720  -52.5880   -7.7960 O.3   316  SER316     -0.2179
    134  N        -33.0800  -48.8010   -9.3830 N.am  317  ARG317     -0.1977
    135  CA       -31.9840  -48.3050  -10.2040 C.3   317  ARG317      0.1597
    136  C        -30.6520  -48.4620   -9.4660 C.2   317  ARG317      0.2287
    137  O        -29.6060  -48.0430   -9.9660 O.2   317  ARG317     -0.2864
    138  CB       -32.2260  -46.8430  -10.5900 C.3   317  ARG317      0.0334
    139  CG       -33.3340  -46.6440  -11.6120 C.3   317  ARG317      0.0492
    140  CD       -33.8230  -45.2070  -11.6160 C.3   317  ARG317      0.2205
    141  NE       -34.8900  -44.9940  -12.5910 N.pl3 317  ARG317     -0.0865
    142  CZ       -35.6640  -43.9110  -12.6420 C.cat 317  ARG317      0.5346
    143  NH1      -35.5040  -42.9260  -11.7670 N.pl3 317  ARG317      0.1354
    144  NH2      -36.6060  -43.8140  -13.5690 N.pl3 317  ARG317      0.1354
@<TRIPOS>BOND
     1    71    72    1
     2    75    72    1
     3    75    76    1
     4    73    72    1
     5    73    74    2
     6    76    77    1
     7    99    98   ar
     8    98   100   ar
     9    98    97    1
    10    77    79   ar
    11    77    78   ar
    12    80    81    1
    13    96    97    1
    14    96    93    1
    15    65    66    2
    16    65    64    1
    17    94    93    1
    18    94    95    2
    19    92    93    1
    20    92    82   am
    21    64    63    1
    22    64    67    1
    23    81    82    1
    24    81    84    1
    25    82    83    2
    26    63    57   am
    27    84    85    1
    28    69    68   ar
    29    67    68    1
    30    57    56    1
    31    57    58    2
    32    56    55    1
    33    56    59    1
    34    68    70   ar
    35    85    87   ar
    36    85    86   ar
    37    87    89   ar
    38    60    59    1
    39    60    62    1
    40    59    61    1
    41   101   102    1
    42    86    88   ar
    43    89    90   ar
    44   105   102    1
    45   105   106    1
    46   102   103    1
    47   107   106    1
    48   107   108    1
    49    90    88   ar
    50    90    91    1
    51   104   103    2
    52    50    49    1
    53    50    51    2
    54    49    52    1
    55    49    48    1
    56   108   109    1
    57    52    53    1
    58    48    54    1
    59    46    45    1
    60    53    54    1
    61    47    45    1
    62    45    42    1
    63    42    43    1
    64    42    41    1
    65    43    44    2
    66   144   142    1
    67   119   117   ar
    68   119   118   ar
    69   142   141    2
    70   142   143    1
    71   117   115   ar
    72   141   140    1
    73   118   116   ar
    74   115   116   ar
    75   115   114    1
    76   140   139    1
    77   139   138    1
    78   126   125    1
    79   113   112    2
    80   114   111    1
    81   111   112    1
    82   111   110    1
    83   125   124    1
    84   125   127    1
    85   112   120   am
    86   131   130    2
    87   124   121    1
    88   138   135    1
    89   135   136    1
    90   135   134    1
    91     8     7    1
    92   137   136    2
    93   120   121    1
    94   130   134   am
    95   130   129    1
    96     7     6    1
    97   121   122    1
    98   128   122   am
    99   128   129    1
   100   122   123    2
   101   129   132    1
   102     6     5    1
   103   133   132    1
   104     5     2    1
   105     2     1    1
   106     2     3    1
   107    30    31    1
   108    30    29    1
   109    12    11    2
   110    32    31    2
   111     9     3   am
   112     9    10    1
   113     3     4    2
   114    31    33   am
   115    29    20   am
   116    11    10    1
   117    11    18   am
   118    20    21    2
   119    20    19    1
   120    10    13    1
   121    33    34    1
   122    13    14    1
   123    39    38    2
   124    34    37    1
   125    34    35    1
   126    19    18    1
   127    19    22    1
   128    37    38    1
   129    38    40   am
   130    16    15   ar
   131    14    15    1
   132    35    36    2
   133    22    23    1
   134    15    17   ar
   135    23    24    1
   136    24    25    1
   137    25    26    2
   138    27    26    1
   139    26    28    1
