@<TRIPOS>MOLECULE
tmp/2ht7A00.pdb
 175 164 0 0 0
SMALL
GASTEIGER

@<TRIPOS>ATOM
      1  N         13.7740   14.2590  -21.3640 N.3    36  ARG36      -0.1231
      2  CA        15.0620   14.9180  -21.2920 C.3    36  ARG36       0.1694
      3  C         15.4380   15.1250  -19.8270 C.2    36  ARG36       0.2591
      4  O         14.5700   15.0980  -18.9490 O.2    36  ARG36      -0.2718
      5  CB        14.9680   16.2580  -22.0080 C.3    36  ARG36       0.0321
      6  CG        16.2880   16.9100  -22.2740 C.3    36  ARG36       0.0489
      7  CD        17.0370   16.2330  -23.4040 C.3    36  ARG36       0.2205
      8  NE        18.4660   16.3410  -23.1490 N.pl3  36  ARG36      -0.0865
      9  CZ        19.1220   17.4890  -23.0360 C.cat  36  ARG36       0.5346
     10  NH1       20.4200   17.4840  -22.7800 N.pl3  36  ARG36       0.1354
     11  NH2       18.4870   18.6420  -23.2090 N.pl3  36  ARG36       0.1354
     12  N         16.7310   15.3080  -19.5670 N.am   37  GLU37      -0.1979
     13  CA        17.2330   15.5400  -18.2060 C.3    37  GLU37       0.1602
     14  C         16.5960   14.6410  -17.1570 C.2    37  GLU37       0.2287
     15  O         15.8740   15.1150  -16.2820 O.2    37  GLU37      -0.2864
     16  CB        17.0040   16.9980  -17.8450 C.3    37  GLU37       0.0415
     17  CG        17.6960   17.9120  -18.8310 C.3    37  GLU37       0.1163
     18  CD        16.8710   19.1050  -19.1850 C.2    37  GLU37       0.3649
     19  OE1       16.3160   19.7080  -18.2440 O.co2  37  GLU37      -0.2457
     20  OE2       16.7860   19.4340  -20.3920 O.co2  37  GLU37      -0.2457
     21  N         11.9870   24.3220  -26.0450 N.3    69  ASP69      -0.1225
     22  CA        12.3290   23.6890  -24.7590 C.3    69  ASP69       0.1805
     23  C         11.3630   24.1310  -23.6810 C.2    69  ASP69       0.2597
     24  O         10.7490   23.3190  -22.9990 O.2    69  ASP69      -0.2718
     25  CB        13.7280   24.0850  -24.2630 C.3    69  ASP69       0.1424
     26  CG        14.8420   23.4760  -25.0710 C.2    69  ASP69       0.3668
     27  OD1       14.6460   22.3650  -25.6040 O.co2  69  ASP69      -0.2456
     28  OD2       15.9230   24.1060  -25.1490 O.co2  69  ASP69      -0.2456
     29  N         11.2610   25.4410  -23.5260 N.am   70  ARG70      -0.1979
     30  CA        10.4110   26.0360  -22.5220 C.3    70  ARG70       0.1597
     31  C          8.9680   26.2490  -22.9960 C.2    70  ARG70       0.2287
     32  O          8.3860   27.3340  -22.8180 O.2    70  ARG70      -0.2864
     33  CB        11.0490   27.3490  -22.0710 C.3    70  ARG70       0.0334
     34  CG        12.4870   27.1680  -21.5890 C.3    70  ARG70       0.0492
     35  CD        13.0460   28.4650  -21.0530 C.3    70  ARG70       0.2205
     36  NE        13.2540   29.4220  -22.1290 N.pl3  70  ARG70      -0.0865
     37  CZ        14.2640   29.3610  -22.9890 C.cat  70  ARG70       0.5346
     38  NH1       14.3700   30.2710  -23.9480 N.pl3  70  ARG70       0.1354
     39  NH2       15.1770   28.4020  -22.8770 N.pl3  70  ARG70       0.1354
     40  N          5.6590   21.1930  -21.3740 N.3    74  ARG74      -0.1245
     41  CA         6.7240   20.6340  -20.5450 C.3    74  ARG74       0.1563
     42  C          6.2580   20.3620  -19.1160 C.2    74  ARG74       0.2260
     43  O          5.9620   21.2920  -18.3770 O.2    74  ARG74      -0.2867
     44  CB         7.9100   21.6180  -20.5180 C.3    74  ARG74       0.0307
     45  CG         9.2850   20.9810  -20.6320 C.3    74  ARG74       0.0489
     46  CD         9.5760   20.5260  -22.0570 C.3    74  ARG74       0.2205
     47  NE        10.6440   19.5300  -22.0880 N.pl3  74  ARG74      -0.0865
     48  CZ        11.9290   19.7870  -21.8810 C.cat  74  ARG74       0.5346
     49  NH1       12.8080   18.7950  -21.9200 N.pl3  74  ARG74       0.1354
     50  NH2       12.3390   21.0300  -21.6550 N.pl3  74  ARG74       0.1354
     51  N          9.7770   23.2340  -17.2360 N.3    97  TRP97      -0.1227
     52  CA        10.7160   23.0830  -18.3330 C.3    97  TRP97       0.1737
     53  C         12.1020   23.2510  -17.7190 C.2    97  TRP97       0.2596
     54  O         13.0810   23.5680  -18.4000 O.2    97  TRP97      -0.2718
     55  CB        10.4890   24.1000  -19.4630 C.3    97  TRP97       0.0564
     56  CG         9.9860   25.4880  -19.0980 C.ar   97  TRP97       0.0003
     57  CD1        8.7930   26.0370  -19.4720 C.ar   97  TRP97       0.0946
     58  CD2       10.7040   26.5310  -18.4200 C.ar   97  TRP97       0.0152
     59  NE1        8.7280   27.3490  -19.0840 N.ar   97  TRP97      -0.2442
     60  CE2        9.8870   27.6800  -18.4380 C.ar   97  TRP97       0.0810
     61  CE3       11.9590   26.6080  -17.8020 C.ar   97  TRP97       0.0012
     62  CZ2       10.2810   28.8870  -17.8660 C.ar   97  TRP97       0.0191
     63  CZ3       12.3470   27.8070  -17.2350 C.ar   97  TRP97       0.0001
     64  CH2       11.5110   28.9300  -17.2730 C.ar   97  TRP97       0.0015
     65  N         12.1430   23.0350  -16.4050 N.am   98  SER98      -0.1952
     66  CA        13.3450   23.0930  -15.5720 C.3    98  SER98       0.1924
     67  C         12.8820   22.7340  -14.1580 C.2    98  SER98       0.2314
     68  O         12.0220   23.4200  -13.6020 O.2    98  SER98      -0.2863
     69  CB        13.9640   24.4920  -15.5760 C.3    98  SER98       0.2116
     70  OG        15.1020   24.5600  -14.7140 O.3    98  SER98      -0.2180
     71  N         14.5140   33.9740  -18.1260 N.3   141  ILE141     -0.1245
     72  CA        14.4880   32.5280  -17.9690 C.3   141  ILE141      0.1561
     73  C         14.8850   32.0340  -16.5800 C.2   141  ILE141      0.2260
     74  O         16.0290   31.6570  -16.3600 O.2   141  ILE141     -0.2867
     75  CB        15.4070   31.8500  -19.0040 C.3   141  ILE141      0.0252
     76  CG1       15.0770   32.3690  -20.4040 C.3   141  ILE141      0.0019
     77  CG2       15.2220   30.3260  -18.9600 C.3   141  ILE141      0.0019
     78  CD1       15.9120   31.7420  -21.4720 C.3   141  ILE141      0.0001
     79  N         15.5210   29.5380  -13.9140 N.3   143  ARG143     -0.1245
     80  CA        15.8050   28.1080  -14.0170 C.3   143  ARG143      0.1563
     81  C         16.4780   27.5250  -12.7860 C.2   143  ARG143      0.2260
     82  O         16.8800   28.2610  -11.8840 O.2   143  ARG143     -0.2867
     83  CB        16.6790   27.8690  -15.2480 C.3   143  ARG143      0.0307
     84  CG        17.8960   28.7830  -15.3230 C.3   143  ARG143      0.0489
     85  CD        18.4890   28.7950  -16.7270 C.3   143  ARG143      0.2205
     86  NE        19.6520   29.6760  -16.8530 N.pl3 143  ARG143     -0.0865
     87  CZ        19.6310   31.0020  -16.7070 C.cat 143  ARG143      0.5346
     88  NH1       20.7530   31.6960  -16.8440 N.pl3 143  ARG143      0.1354
     89  NH2       18.5040   31.6430  -16.4220 N.pl3 143  ARG143      0.1354
     90  N         18.0510   20.7570  -12.3320 N.3   146  GLU146     -0.1245
     91  CA        17.9570   19.6850  -13.3240 C.3   146  GLU146      0.1567
     92  C         18.5030   18.4160  -12.6830 C.2   146  GLU146      0.2260
     93  O         18.8860   17.4710  -13.3720 O.2   146  GLU146     -0.2867
     94  CB        18.7850   19.9950  -14.5710 C.3   146  GLU146      0.0388
     95  CG        18.4590   21.2960  -15.2200 C.3   146  GLU146      0.1160
     96  CD        16.9900   21.4280  -15.5000 C.2   146  GLU146      0.3649
     97  OE1       16.3310   20.3840  -15.7320 O.co2 146  GLU146     -0.2457
     98  OE2       16.4950   22.5750  -15.5020 O.co2 146  GLU146     -0.2457
     99  N         18.8960   35.0970  -15.3000 N.3   163  GLY163     -0.1225
    100  CA        19.7500   36.0100  -16.0410 C.3   163  GLY163      0.1811
    101  C         20.2190   35.3780  -17.3430 C.2   163  GLY163      0.2280
    102  O         19.8080   34.2630  -17.6530 O.2   163  GLY163     -0.2866
    103  N         22.4980   33.5070  -20.4300 N.3   165  ALA165     -0.1245
    104  CA        23.2970   32.2800  -20.5280 C.3   165  ALA165      0.1562
    105  C         24.7840   32.5840  -20.7660 C.2   165  ALA165      0.2260
    106  O         25.6480   31.7760  -20.4130 O.2   165  ALA165     -0.2867
    107  CB        22.7650   31.3860  -21.6490 C.3   165  ALA165      0.0290
    108  N         25.1200   27.3870  -13.2500 N.3   195  GLU195     -0.1231
    109  CA        23.9660   26.7590  -13.8720 C.3   195  GLU195      0.1699
    110  C         23.9000   25.2630  -13.5840 C.2   195  GLU195      0.2592
    111  O         24.9270   24.6010  -13.4030 O.2   195  GLU195     -0.2718
    112  CB        24.0200   26.9380  -15.3900 C.3   195  GLU195      0.0402
    113  CG        24.0610   28.3730  -15.8830 C.3   195  GLU195      0.1161
    114  CD        22.7280   28.8540  -16.4310 C.2   195  GLU195      0.3649
    115  OE1       22.7200   29.9280  -17.0710 O.co2 195  GLU195     -0.2457
    116  OE2       21.6950   28.1690  -16.2210 O.co2 195  GLU195     -0.2457
    117  N         22.6760   24.7450  -13.5420 N.am  196  GLU196     -0.1979
    118  CA        22.4320   23.3260  -13.3530 C.3   196  GLU196      0.1602
    119  C         23.3740   22.6560  -12.3530 C.2   196  GLU196      0.2287
    120  O         24.1200   21.7450  -12.7170 O.2   196  GLU196     -0.2864
    121  CB        22.5470   22.6460  -14.7220 C.3   196  GLU196      0.0415
    122  CG        21.9810   23.5050  -15.8500 C.3   196  GLU196      0.1163
    123  CD        22.0550   22.8490  -17.2120 C.2   196  GLU196      0.3649
    124  OE1       23.1680   22.5480  -17.6890 O.co2 196  GLU196     -0.2457
    125  OE2       20.9880   22.6400  -17.8150 O.co2 196  GLU196     -0.2457
    126  N         27.8300   24.3330  -13.4780 N.3   211  ARG211     -0.1245
    127  CA        28.2210   24.5800  -14.8630 C.3   211  ARG211      0.1563
    128  C         28.4680   26.0530  -15.1390 C.2   211  ARG211      0.2260
    129  O         27.6960   26.9100  -14.7240 O.2   211  ARG211     -0.2867
    130  CB        27.1220   24.0710  -15.8090 C.3   211  ARG211      0.0307
    131  CG        27.1670   24.6100  -17.2440 C.3   211  ARG211      0.0489
    132  CD        26.0020   24.0540  -18.0720 C.3   211  ARG211      0.2205
    133  NE        25.9670   24.5950  -19.4330 N.pl3 211  ARG211     -0.0865
    134  CZ        25.0620   24.2690  -20.3570 C.cat 211  ARG211      0.5346
    135  NH1       25.1110   24.8160  -21.5700 N.pl3 211  ARG211      0.1354
    136  NH2       24.1080   23.3880  -20.0770 N.pl3 211  ARG211      0.1354
    137  N         28.5590   28.5510  -18.0560 N.3   213  GLY213     -0.1225
    138  CA        28.1650   28.7420  -19.4430 C.3   213  GLY213      0.1811
    139  C         28.7400   30.0470  -20.0060 C.2   213  GLY213      0.2280
    140  O         28.5130   30.3840  -21.1680 O.2   213  GLY213     -0.2866
    141  N         30.5720   27.9070  -23.7240 N.3   264  TYR264     -0.1241
    142  CA        29.4460   27.0110  -23.5470 C.3   264  TYR264      0.1605
    143  C         29.6920   26.0450  -22.3820 C.2   264  TYR264      0.2264
    144  O         30.6350   26.2100  -21.6020 O.2   264  TYR264     -0.2867
    145  CB        29.2080   26.2510  -24.8510 C.3   264  TYR264      0.0534
    146  CG        27.8630   25.5780  -24.9480 C.ar  264  TYR264     -0.0201
    147  CD1       26.6810   26.2970  -24.7520 C.ar  264  TYR264     -0.0009
    148  CD2       27.7670   24.2200  -25.2540 C.ar  264  TYR264     -0.0009
    149  CE1       25.4380   25.6710  -24.8610 C.ar  264  TYR264      0.0417
    150  CE2       26.5380   23.5940  -25.3670 C.ar  264  TYR264      0.0417
    151  CZ        25.3840   24.3190  -25.1690 C.ar  264  TYR264      0.1957
    152  OH        24.1770   23.6840  -25.2810 O.3   264  TYR264     -0.2866
    153  N         29.2560   15.8940  -26.9870 N.3   288  ARG288     -0.1245
    154  CA        28.6990   15.2750  -25.8060 C.3   288  ARG288      0.1563
    155  C         28.6260   13.7890  -26.1110 C.2   288  ARG288      0.2260
    156  O         27.5570   13.1730  -26.0820 O.2   288  ARG288     -0.2867
    157  CB        27.3190   15.8640  -25.4960 C.3   288  ARG288      0.0307
    158  CG        27.3960   17.2960  -24.9740 C.3   288  ARG288      0.0489
    159  CD        26.0390   17.8460  -24.5630 C.3   288  ARG288      0.2205
    160  NE        26.1410   19.2450  -24.1470 N.pl3 288  ARG288     -0.0865
    161  CZ        25.1160   19.9840  -23.7300 C.cat 288  ARG288      0.5346
    162  NH1       25.3110   21.2450  -23.3760 N.pl3 288  ARG288      0.1354
    163  NH2       23.8980   19.4650  -23.6660 N.pl3 288  ARG288      0.1354
    164  N         23.9340   15.1860  -20.2930 N.3   322  TYR322     -0.1241
    165  CA        23.8330   15.6400  -18.9050 C.3   322  TYR322      0.1605
    166  C         24.2290   14.5640  -17.8960 C.2   322  TYR322      0.2264
    167  O         24.2540   13.3850  -18.2120 O.2   322  TYR322     -0.2867
    168  CB        22.4040   16.1100  -18.6150 C.3   322  TYR322      0.0534
    169  CG        22.1410   17.5620  -18.9450 C.ar  322  TYR322     -0.0201
    170  CD1       22.8070   18.1890  -19.9960 C.ar  322  TYR322     -0.0009
    171  CD2       21.2250   18.3090  -18.2050 C.ar  322  TYR322     -0.0009
    172  CE1       22.5770   19.5140  -20.3040 C.ar  322  TYR322      0.0417
    173  CE2       20.9850   19.6430  -18.5020 C.ar  322  TYR322      0.0417
    174  CZ        21.6700   20.2430  -19.5570 C.ar  322  TYR322      0.1957
    175  OH        21.4670   21.5820  -19.8530 O.3   322  TYR322     -0.2866
@<TRIPOS>BOND
     1   153   154    1
     2   155   156    2
     3   155   154    1
     4    21    22    1
     5   154   157    1
     6    27    26   ar
     7   157   158    1
     8   150   148   ar
     9   150   151   ar
    10   152   151    1
    11   148   146   ar
    12   151   149   ar
    13    28    26   ar
    14    26    25    1
    15   158   159    1
    16   146   145    1
    17   146   147   ar
    18   149   147   ar
    19   145   142    1
    20    22    25    1
    21    22    23    1
    22   159   160    1
    23   160   161    2
    24    38    37    1
    25   161   163    1
    26   161   162    1
    27   141   142    1
    28    23    29   am
    29    23    24    2
    30   142   143    1
    31    29    30    1
    32     7     8    1
    33     7     6    1
    34    11     9    1
    35     8     9    2
    36     9    10    1
    37    31    32    2
    38    31    30    1
    39    37    39    1
    40    37    36    2
    41    30    33    1
    42   143   144    2
    43     6     5    1
    44    36    35    1
    45    47    46    1
    46    47    48    2
    47    33    34    1
    48    46    45    1
    49     5     2    1
    50    49    48    1
    51    48    50    1
    52   107   104    1
    53    34    35    1
    54   135   134    1
    55    78    76    1
    56    40    41    1
    57     1     2    1
    58     2     3    1
    59   140   139    2
    60   105   104    1
    61   105   106    2
    62    45    44    1
    63    41    44    1
    64    41    42    1
    65   104   103    1
    66    76    75    1
    67    20    18   ar
    68   134   136    1
    69   134   133    2
    70   172   170   ar
    71   172   174   ar
    72   164   165    1
    73   139   138    1
    74   170   169   ar
    75   175   174    1
    76     3    12   am
    77     3     4    2
    78    12    13    1
    79   174   173   ar
    80    57    56   ar
    81    57    59   ar
    82    55    56    1
    83    55    52    1
    84   138   137    1
    85   133   132    1
    86    18    17    1
    87    18    19   ar
    88    42    43    2
    89    56    58   ar
    90    59    60   ar
    91    75    77    1
    92    75    72    1
    93   169   168    1
    94   169   171   ar
    95   165   168    1
    96   165   166    1
    97    17    16    1
    98   173   171   ar
    99    60    58   ar
   100    60    62   ar
   101    58    61   ar
   102    54    53    2
   103    52    53    1
   104    52    51    1
   105   167   166    2
   106    13    16    1
   107    13    14    1
   108    71    72    1
   109   132   131    1
   110    72    73    1
   111    62    64   ar
   112   125   123   ar
   113    61    63   ar
   114    53    65   am
   115   124   123   ar
   116   102   101    2
   117   101   100    1
   118    64    63   ar
   119   131   130    1
   120   123   122    1
   121    14    15    2
   122   115   114   ar
   123    86    85    1
   124    86    87    2
   125    88    87    1
   126    85    84    1
   127    87    89    1
   128    73    74    2
   129   114   116   ar
   130   114   113    1
   131    65    66    1
   132   100    99    1
   133   113   112    1
   134   122   121    1
   135   130   127    1
   136    97    96   ar
   137    69    66    1
   138    69    70    1
   139    66    67    1
   140    98    96   ar
   141    96    95    1
   142   112   109    1
   143    84    83    1
   144    83    80    1
   145    95    94    1
   146   128   127    1
   147   128   129    2
   148   127   126    1
   149   121   118    1
   150    94    91    1
   151    67    68    2
   152    80    79    1
   153    80    81    1
   154   109   110    1
   155   109   108    1
   156   110   117   am
   157   110   111    2
   158   117   118    1
   159    93    92    2
   160   118   119    1
   161    91    92    1
   162    91    90    1
   163    81    82    2
   164   120   119    2
