@<TRIPOS>MOLECULE
tmp/2ht9B00.pdb
 112 108 0 0 0
SMALL
GASTEIGER

@<TRIPOS>ATOM
      1  N         -4.0730   37.8110   -6.1780 N.3    21  LYS21      -0.1245
      2  CA        -4.8820   36.6890   -5.7050 C.3    21  LYS21       0.1561
      3  C         -5.5240   36.0250   -6.9150 C.2    21  LYS21       0.2260
      4  O         -5.9100   36.6980   -7.8710 O.2    21  LYS21      -0.2867
      5  CB        -5.9400   37.0970   -4.6630 C.3    21  LYS21       0.0271
      6  CG        -5.3380   37.6300   -3.3740 C.3    21  LYS21       0.0035
      7  CD        -6.4010   38.0630   -2.3460 C.3    21  LYS21       0.0206
      8  CE        -5.7840   38.6010   -1.0400 C.3    21  LYS21       0.1093
      9  NZ        -6.8270   38.9810   -0.0100 N.3    21  LYS21      -0.1314
     10  N         -9.1510   37.1520   -7.9410 N.3    24  CYS24      -0.1235
     11  CA        -9.3840   38.5740   -8.2190 C.3    24  CYS24       0.1677
     12  C         -9.2780   38.9570   -9.7110 C.2    24  CYS24       0.2270
     13  O         -8.2060   38.7810  -10.3490 O.2    24  CYS24      -0.2867
     14  CB        -8.4040   39.4040   -7.3910 C.3    24  CYS24       0.0956
     15  SG        -8.4270   41.1650   -7.7520 S.3    24  CYS24      -0.0801
     16  N         -9.3650   42.0620  -11.0280 N.3    26  TYR26      -0.1241
     17  CA        -8.3610   43.1270  -11.2310 C.3    26  TYR26       0.1605
     18  C         -6.9730   42.5520  -11.4560 C.2    26  TYR26       0.2264
     19  O         -6.1890   43.0510  -12.3270 O.2    26  TYR26      -0.2867
     20  CB        -8.3580   44.1540  -10.0820 C.3    26  TYR26       0.0534
     21  CG        -9.2130   45.3960  -10.3380 C.ar   26  TYR26      -0.0201
     22  CD1      -10.3800   45.3280  -11.1250 C.ar   26  TYR26      -0.0009
     23  CD2       -8.8840   46.6150   -9.7560 C.ar   26  TYR26      -0.0009
     24  CE1      -11.1770   46.4610  -11.3410 C.ar   26  TYR26       0.0417
     25  CE2       -9.6700   47.7550   -9.9700 C.ar   26  TYR26       0.0417
     26  CZ       -10.8040   47.6710  -10.7570 C.ar   26  TYR26       0.1957
     27  OH       -11.5670   48.7760  -10.9630 O.3    26  TYR26      -0.2866
     28  N          0.7140   40.7620    2.6430 N.3    56  GLN56      -0.1245
     29  CA        -0.1710   41.9330    2.4690 C.3    56  GLN56       0.1566
     30  C          0.1490   43.0650    3.4540 C.2    56  GLN56       0.2260
     31  O          0.0860   44.2460    3.0790 O.2    56  GLN56      -0.2867
     32  CB        -1.6720   41.5630    2.5140 C.3    56  GLN56       0.0367
     33  CG        -2.2710   41.3040    1.1160 C.3    56  GLN56       0.0905
     34  CD        -3.7860   41.1780    1.1010 C.2    56  GLN56       0.2608
     35  OE1       -4.3430   40.1840    1.5960 O.2    56  GLN56      -0.2717
     36  NE2       -4.4690   42.1800    0.5120 N.am   56  GLN56      -0.0878
     37  N         -0.8490   50.9130    0.4170 N.3    65  GLU65      -0.1231
     38  CA        -2.1580   50.2410    0.4780 C.3    65  GLU65       0.1699
     39  C         -1.9760   48.7320    0.6240 C.2    65  GLU65       0.2592
     40  O         -0.9750   48.1760    0.2080 O.2    65  GLU65      -0.2718
     41  CB        -3.0170   50.5790   -0.7550 C.3    65  GLU65       0.0402
     42  CG        -2.9270   52.0180   -1.2170 C.3    65  GLU65       0.1161
     43  CD        -3.7470   52.2520   -2.4920 C.2    65  GLU65       0.3649
     44  OE1       -4.4530   51.3040   -2.9070 O.co2  65  GLU65      -0.2457
     45  OE2       -3.6170   53.3850   -2.9990 O.co2  65  GLU65      -0.2457
     46  N         -2.9550   48.0810    1.2350 N.am   66  ARG66      -0.1966
     47  CA        -2.9220   46.6310    1.4300 C.3    66  ARG66       0.1729
     48  C         -3.4280   45.8320    0.1990 C.2    66  ARG66       0.2617
     49  O         -3.2780   44.6050    0.1270 O.2    66  ARG66      -0.2715
     50  CB        -3.7790   46.2790    2.6390 C.3    66  ARG66       0.0348
     51  CG        -3.3740   44.9960    3.3170 C.3    66  ARG66       0.0492
     52  CD        -3.9800   44.8580    4.7150 C.3    66  ARG66       0.2205
     53  NE        -3.5070   43.6130    5.3180 N.pl3  66  ARG66      -0.0865
     54  CZ        -4.0050   42.4000    5.0520 C.cat  66  ARG66       0.5346
     55  NH1       -5.0370   42.2480    4.2210 N.pl3  66  ARG66       0.1354
     56  NH2       -3.4790   41.3210    5.6290 N.pl3  66  ARG66       0.1354
     57  N         -3.9810   46.5390   -0.7780 N.am   67  THR67      -0.1937
     58  CA        -4.8030   45.9080   -1.8070 C.3    67  THR67       0.2028
     59  C         -3.9920   45.1250   -2.8630 C.2    67  THR67       0.2642
     60  O         -2.8040   45.3820   -3.0640 O.2    67  THR67      -0.2714
     61  CB        -5.6670   46.9570   -2.4650 C.3    67  THR67       0.1808
     62  OG1       -4.8390   48.0140   -2.9640 O.3    67  THR67      -0.2208
     63  CG2       -6.6760   47.5170   -1.4460 C.3    67  THR67       0.0379
     64  N         -4.6530   44.1540   -3.4920 N.am   68  VAL68      -0.1963
     65  CA        -4.1430   43.4790   -4.6750 C.3    68  VAL68       0.1712
     66  C         -4.8600   44.0480   -5.9190 C.2    68  VAL68       0.2458
     67  O         -6.0210   44.4720   -5.8520 O.2    68  VAL68      -0.2730
     68  CB        -4.2670   41.9210   -4.5840 C.3    68  VAL68       0.0289
     69  CG1       -3.3270   41.3670   -3.4730 C.3    68  VAL68       0.0023
     70  CG2       -5.7250   41.4550   -4.4010 C.3    68  VAL68       0.0023
     71  N         -4.1410   44.1350   -7.0460 N.am   69  PRO69      -0.2716
     72  CA        -2.7230   43.7650   -7.2030 C.3    69  PRO69       0.1536
     73  C         -1.7470   44.8390   -6.6860 C.2    69  PRO69       0.2598
     74  O         -2.1080   45.9960   -6.5660 O.2    69  PRO69      -0.2715
     75  CB        -2.5960   43.5840   -8.7070 C.3    69  PRO69       0.0310
     76  CG        -3.5920   44.5450   -9.2820 C.3    69  PRO69       0.0237
     77  CD        -4.7320   44.6020   -8.3220 C.3    69  PRO69       0.0939
     78  N         -0.5250   44.4320   -6.3990 N.am   70  ARG70      -0.1978
     79  CA         0.5820   45.3710   -6.1740 C.3    70  ARG70       0.1597
     80  C          1.6220   45.0230   -7.2450 C.2    70  ARG70       0.2287
     81  O          2.1000   43.9060   -7.2750 O.2    70  ARG70      -0.2864
     82  CB         1.1830   45.2140   -4.7830 C.3    70  ARG70       0.0334
     83  CG         0.2380   45.3830   -3.5730 C.3    70  ARG70       0.0492
     84  CD         0.0170   46.8560   -3.2130 C.3    70  ARG70       0.2205
     85  NE        -0.9670   47.5510   -4.0480 N.pl3  70  ARG70      -0.0865
     86  CZ        -1.2020   48.8590   -3.9970 C.cat  70  ARG70       0.5346
     87  NH1       -2.1140   49.4200   -4.7810 N.pl3  70  ARG70       0.1354
     88  NH2       -0.4760   49.6270   -3.1930 N.pl3  70  ARG70       0.1354
     89  N         -1.4030   49.8330   -8.4870 N.3    80  GLY80      -0.1210
     90  CA        -2.3850   48.7500   -8.5790 C.3    80  GLY80       0.1956
     91  C         -2.8230   48.5820  -10.0280 C.2    80  GLY80       0.2612
     92  O         -2.1380   49.0420  -10.9410 O.2    80  GLY80      -0.2717
     93  N         -3.9690   47.9340  -10.2420 N.am   81  ALA81      -0.1965
     94  CA        -4.4460   47.6460  -11.6000 C.3    81  ALA81       0.1728
     95  C         -4.7030   48.9170  -12.4040 C.2    81  ALA81       0.2617
     96  O         -4.1780   49.0910  -13.4870 O.2    81  ALA81      -0.2715
     97  CB        -5.7210   46.7620  -11.5710 C.3    81  ALA81       0.0334
     98  N         -5.4620   49.8300  -11.8270 N.am   82  THR82      -0.1937
     99  CA        -5.8500   51.0670  -12.5070 C.3    82  THR82       0.2028
    100  C         -4.6370   51.9420  -12.8800 C.2    82  THR82       0.2642
    101  O         -4.5420   52.4290  -14.0020 O.2    82  THR82      -0.2714
    102  CB        -6.8860   51.8450  -11.6440 C.3    82  THR82       0.1808
    103  OG1       -8.0160   50.9980  -11.4020 O.3    82  THR82      -0.2208
    104  CG2       -7.3520   53.1160  -12.3440 C.3    82  THR82       0.0379
    105  N         -3.7160   52.1270  -11.9340 N.am   83  ASP83      -0.1971
    106  CA        -2.4980   52.9400  -12.1650 C.3    83  ASP83       0.1709
    107  C         -1.6460   52.3370  -13.2760 C.2    83  ASP83       0.2293
    108  O         -1.0470   53.0590  -14.0850 O.2    83  ASP83      -0.2864
    109  CB        -1.5940   52.9850  -10.9240 C.3    83  ASP83       0.1436
    110  CG        -2.2310   53.6840   -9.7310 C.2    83  ASP83       0.3671
    111  OD1       -2.8010   54.7730   -9.9260 O.co2  83  ASP83      -0.2456
    112  OD2       -2.1390   53.1290   -8.5970 O.co2  83  ASP83      -0.2456
@<TRIPOS>BOND
     1   108   107    2
     2   101   100    2
     3    96    95    2
     4   107   106    1
     5   100    99    1
     6   100   105   am
     7    99    98    1
     8    99   102    1
     9    95    98   am
    10    95    94    1
    11   104   102    1
    12    19    18    2
    13   106   105    1
    14   106   109    1
    15   102   103    1
    16    94    97    1
    17    94    93    1
    18    18    17    1
    19    24    22   ar
    20    24    26   ar
    21    17    16    1
    22    17    20    1
    23    22    21   ar
    24    27    26    1
    25    92    91    2
    26   109   110    1
    27    26    25   ar
    28    13    12    2
    29    21    20    1
    30    21    23   ar
    31    93    91   am
    32    91    90    1
    33    25    23   ar
    34   111   110   ar
    35   110   112   ar
    36    12    11    1
    37    76    75    1
    38    76    77    1
    39    75    72    1
    40    90    89    1
    41    77    71    1
    42    11    10    1
    43    11    14    1
    44     4     3    2
    45    15    14    1
    46    81    80    2
    47    80    79    1
    48    72    71    1
    49    72    73    1
    50    71    66   am
    51     3     2    1
    52    73    74    2
    53    73    78   am
    54    78    79    1
    55     1     2    1
    56    79    82    1
    57    66    67    2
    58    66    65    1
    59     2     5    1
    60    82    83    1
    61    87    86    1
    62    65    68    1
    63    65    64    1
    64     5     6    1
    65    68    70    1
    66    68    69    1
    67    85    86    2
    68    85    84    1
    69    86    88    1
    70    83    84    1
    71    64    59   am
    72     6     7    1
    73    60    59    2
    74    45    43   ar
    75    62    61    1
    76    44    43   ar
    77    59    58    1
    78    43    42    1
    79    61    58    1
    80    61    63    1
    81     7     8    1
    82    58    57    1
    83    42    41    1
    84     8     9    1
    85    57    48   am
    86    41    38    1
    87    49    48    2
    88    48    47    1
    89    40    39    2
    90    37    38    1
    91    38    39    1
    92    36    34   am
    93    39    46   am
    94    34    33    1
    95    34    35    2
    96    33    32    1
    97    46    47    1
    98    47    50    1
    99    29    32    1
   100    29    28    1
   101    29    30    1
   102    50    51    1
   103    31    30    2
   104    51    52    1
   105    55    54    1
   106    52    53    1
   107    54    53    2
   108    54    56    1
