@<TRIPOS>MOLECULE
tmp/2hteA00.pdb
 141 132 0 0 0
SMALL
GASTEIGER

@<TRIPOS>ATOM
      1  N         21.6720  125.8900   28.0260 N.3    32  GLN32      -0.1245
      2  CA        20.2750  126.1750   27.7330 C.3    32  GLN32       0.1566
      3  C         19.6550  127.1180   28.7450 C.2    32  GLN32       0.2260
      4  O         20.1770  127.2890   29.8570 O.2    32  GLN32      -0.2867
      5  CB        19.4470  124.8650   27.6810 C.3    32  GLN32       0.0367
      6  CG        19.3900  124.0420   28.9540 C.3    32  GLN32       0.0905
      7  CD        19.4210  122.5460   28.6660 C.2    32  GLN32       0.2608
      8  OE1       18.7590  122.0650   27.7290 O.2    32  GLN32      -0.2717
      9  NE2       20.2230  121.8000   29.4490 N.am   32  GLN32      -0.0878
     10  N          9.4290  121.7530   34.8370 N.3    46  LEU46      -0.1245
     11  CA        10.7750  122.0550   34.3810 C.3    46  LEU46       0.1561
     12  C         10.7090  122.3600   32.8880 C.2    46  LEU46       0.2260
     13  O         10.1420  121.5900   32.0810 O.2    46  LEU46      -0.2867
     14  CB        11.7560  120.8800   34.6830 C.3    46  LEU46       0.0270
     15  CG        13.2260  121.0570   34.2350 C.3    46  LEU46       0.0019
     16  CD1       13.7670  122.3900   34.7510 C.3    46  LEU46       0.0001
     17  CD2       14.0920  119.9310   34.7350 C.3    46  LEU46       0.0001
     18  N         13.0910  123.6370   29.5890 N.3    48  LEU48      -0.1245
     19  CA        14.4080  123.8140   29.0250 C.3    48  LEU48       0.1561
     20  C         14.3040  124.3380   27.5970 C.2    48  LEU48       0.2260
     21  O         13.6970  123.6910   26.7520 O.2    48  LEU48      -0.2867
     22  CB        15.1700  122.4750   29.0540 C.3    48  LEU48       0.0270
     23  CG        15.4840  121.8680   30.4260 C.3    48  LEU48       0.0019
     24  CD1       16.2860  120.6130   30.2360 C.3    48  LEU48       0.0001
     25  CD2       16.2550  122.8830   31.2750 C.3    48  LEU48       0.0001
     26  N         10.1170  120.0260   29.9950 N.3    53  GLN53      -0.1245
     27  CA        10.9180  118.8340   30.2530 C.3    53  GLN53       0.1566
     28  C         10.1520  117.8470   31.0980 C.2    53  GLN53       0.2260
     29  O         10.2160  116.6570   30.8760 O.2    53  GLN53      -0.2867
     30  CB        12.2780  119.1760   30.9120 C.3    53  GLN53       0.0367
     31  CG        13.3230  118.1660   30.5900 C.3    53  GLN53       0.0905
     32  CD        13.6110  118.1740   29.0940 C.2    53  GLN53       0.2608
     33  OE1       13.4360  119.1990   28.4020 O.2    53  GLN53      -0.2717
     34  NE2       14.0170  117.0450   28.5810 N.am   53  GLN53      -0.0878
     35  N         21.7400  108.3200   29.7120 N.3    83  VAL83      -0.1231
     36  CA        22.2170  109.4630   28.9460 C.3    83  VAL83       0.1692
     37  C         21.1810  110.5940   29.0190 C.2    83  VAL83       0.2593
     38  O         20.0110  110.3850   28.6890 O.2    83  VAL83      -0.2718
     39  CB        22.4850  109.0590   27.4710 C.3    83  VAL83       0.0266
     40  CG1       22.7260  110.2840   26.5660 C.3    83  VAL83       0.0020
     41  CG2       23.6480  108.0230   27.3750 C.3    83  VAL83       0.0020
     42  N         21.6100  111.8030   29.4000 N.am   84  GLY84      -0.1942
     43  CA        20.6530  112.9080   29.6630 C.3    84  GLY84       0.2014
     44  C         20.0280  112.6240   31.0080 C.2    84  GLY84       0.2639
     45  O         20.7020  112.1590   31.9170 O.2    84  GLY84      -0.2714
     46  N         18.7300  112.8870   31.1470 N.am   85  GLY85      -0.1939
     47  CA        18.0390  112.4960   32.3830 C.3    85  GLY85       0.2014
     48  C         18.4500  113.2040   33.6660 C.2    85  GLY85       0.2639
     49  O         18.2480  112.6630   34.7840 O.2    85  GLY85      -0.2714
     50  N         18.9800  114.4200   33.5210 N.am   86  GLY86      -0.1939
     51  CA        19.4770  115.2160   34.6650 C.3    86  GLY86       0.2014
     52  C         18.4560  115.3790   35.7850 C.2    86  GLY86       0.2638
     53  O         18.8120  115.4470   36.9340 O.2    86  GLY86      -0.2714
     54  N         17.1750  115.4260   35.4440 N.am   87  ASP87      -0.1971
     55  CA        16.1200  115.5200   36.4500 C.3    87  ASP87       0.1709
     56  C         16.1270  114.3440   37.4240 C.2    87  ASP87       0.2293
     57  O         15.7570  114.4900   38.5870 O.2    87  ASP87      -0.2864
     58  CB        14.7560  115.6530   35.7760 C.3    87  ASP87       0.1436
     59  CG        14.5000  114.5450   34.8140 C.2    87  ASP87       0.3671
     60  OD1       14.1650  113.4420   35.2760 O.co2  87  ASP87      -0.2456
     61  OD2       14.6660  114.7760   33.6140 O.co2  87  ASP87      -0.2456
     62  N         25.2510  110.2550   32.4690 N.3   106  CYS106     -0.1221
     63  CA        25.9840  111.2690   31.7570 C.3   106  CYS106      0.1808
     64  C         25.0030  112.3840   31.3290 C.2   106  CYS106      0.2601
     65  O         24.1870  112.2000   30.4050 O.2   106  CYS106     -0.2717
     66  CB        26.6840  110.6210   30.5800 C.3   106  CYS106      0.0970
     67  SG        27.7330  111.7340   29.7240 S.3   106  CYS106     -0.0800
     68  N         25.0600  113.5070   32.0530 N.am  107  GLU107     -0.1965
     69  CA        24.2640  114.6930   31.7710 C.3   107  GLU107      0.1733
     70  C         25.2440  115.8480   31.4730 C.2   107  GLU107      0.2616
     71  O         26.2210  116.0810   32.2160 O.2   107  GLU107     -0.2715
     72  CB        23.3690  114.9770   32.9780 C.3   107  GLU107      0.0429
     73  CG        22.7730  116.3850   33.0970 C.3   107  GLU107      0.1163
     74  CD        21.8320  116.7110   31.9910 C.2   107  GLU107      0.3649
     75  OE1       20.7980  115.9930   31.8480 O.co2 107  GLU107     -0.2457
     76  OE2       22.1460  117.6700   31.2550 O.co2 107  GLU107     -0.2457
     77  N         25.0110  116.5450   30.3750 N.am  108  ILE108     -0.1963
     78  CA        25.8930  117.6320   29.9490 C.3   108  ILE108      0.1727
     79  C         25.7560  118.9150   30.7960 C.2   108  ILE108      0.2616
     80  O         26.7250  119.7090   30.9220 O.2   108  ILE108     -0.2715
     81  CB        25.6310  117.9550   28.4590 C.3   108  ILE108      0.0290
     82  CG1       26.8540  118.5640   27.7770 C.3   108  ILE108      0.0022
     83  CG2       24.3510  118.8080   28.2820 C.3   108  ILE108      0.0023
     84  CD1       26.6160  118.7100   26.2190 C.3   108  ILE108      0.0001
     85  N         24.5710  119.1140   31.3770 N.am  109  ASP109     -0.1971
     86  CA        24.2370  120.3480   32.0900 C.3   109  ASP109      0.1709
     87  C         24.0490  120.0810   33.5720 C.2   109  ASP109      0.2293
     88  O         22.9820  119.6450   33.9850 O.2   109  ASP109     -0.2864
     89  CB        22.9310  120.9510   31.5140 C.3   109  ASP109      0.1436
     90  CG        22.8510  122.4480   31.7080 C.2   109  ASP109      0.3671
     91  OD1       23.4370  122.9410   32.6920 O.co2 109  ASP109     -0.2456
     92  OD2       22.2500  123.1290   30.8540 O.co2 109  ASP109     -0.2456
     93  N         20.8740  121.4520   35.4440 N.3   112  VAL112     -0.1245
     94  CA        19.6550  120.6230   35.4600 C.3   112  VAL112      0.1561
     95  C         19.6590  119.7480   36.7010 C.2   112  VAL112      0.2260
     96  O         18.6710  119.6940   37.4090 O.2   112  VAL112     -0.2867
     97  CB        19.5260  119.7310   34.1930 C.3   112  VAL112      0.0252
     98  CG1       18.3060  118.8010   34.2850 C.3   112  VAL112      0.0019
     99  CG2       19.4770  120.6000   32.9320 C.3   112  VAL112      0.0019
    100  N         29.1980  115.6800   31.2440 N.3   137  GLU137     -0.1231
    101  CA        29.8310  115.6870   29.9260 C.3   137  GLU137      0.1699
    102  C         28.8880  115.3530   28.7970 C.2   137  GLU137      0.2592
    103  O         27.8080  114.8190   29.0150 O.2   137  GLU137     -0.2718
    104  CB        31.1140  114.8310   29.8800 C.3   137  GLU137      0.0402
    105  CG        30.9910  113.3560   30.0100 C.3   137  GLU137      0.1161
    106  CD        32.3810  112.6370   30.1060 C.2   137  GLU137      0.3649
    107  OE1       33.0710  112.4240   29.0780 O.co2 137  GLU137     -0.2457
    108  OE2       32.7600  112.2690   31.2390 O.co2 137  GLU137     -0.2457
    109  N         29.3040  115.7120   27.5920 N.am  138  ASP138     -0.1960
    110  CA        28.5800  115.3480   26.3690 C.3   138  ASP138      0.1840
    111  C         28.5580  113.8150   26.2260 C.2   138  ASP138      0.2621
    112  O         29.6320  113.1770   26.1580 O.2   138  ASP138     -0.2715
    113  CB        29.2660  115.9820   25.1440 C.3   138  ASP138      0.1450
    114  CG        28.3880  115.9430   23.8870 C.2   138  ASP138      0.3671
    115  OD1       27.5920  114.9930   23.6820 O.co2 138  ASP138     -0.2456
    116  OD2       28.4880  116.8770   23.0790 O.co2 138  ASP138     -0.2456
    117  N         27.3610  113.2380   26.1220 N.am  139  ALA139     -0.1977
    118  CA        27.2170  111.7810   26.0050 C.3   139  ALA139      0.1597
    119  C         27.9810  111.2180   24.8160 C.2   139  ALA139      0.2287
    120  O         28.3790  110.0650   24.8280 O.2   139  ALA139     -0.2864
    121  CB        25.7780  111.3830   25.9080 C.3   139  ALA139      0.0319
    122  N         17.6660  109.2970   27.6550 N.3   156  ASP156     -0.1225
    123  CA        16.6340  110.2450   28.0790 C.3   156  ASP156      0.1805
    124  C         17.0070  111.6450   27.6000 C.2   156  ASP156      0.2598
    125  O         17.3400  112.5140   28.4030 O.2   156  ASP156     -0.2718
    126  CB        16.3920  110.2020   29.6040 C.3   156  ASP156      0.1424
    127  CG        15.3210  111.2160   30.0780 C.2   156  ASP156      0.3668
    128  OD1       14.5860  111.7950   29.2460 O.co2 156  ASP156     -0.2456
    129  OD2       15.1810  111.4370   31.2950 O.co2 156  ASP156     -0.2456
    130  N         16.9570  111.8390   26.2790 N.am  157  SER157     -0.1938
    131  CA        17.2970  113.1140   25.6430 C.3   157  SER157      0.2055
    132  C         16.7280  113.2620   24.2460 C.2   157  SER157      0.2643
    133  O         16.5410  112.2680   23.5420 O.2   157  SER157     -0.2714
    134  CB        18.8080  113.2820   25.5250 C.3   157  SER157      0.2130
    135  OG        19.0800  114.3440   24.6080 O.3   157  SER157     -0.2179
    136  N         16.4490  114.5170   23.8630 N.am  158  SER158     -0.1949
    137  CA        16.0870  114.8770   22.4860 C.3   158  SER158      0.1924
    138  C         17.2740  115.5370   21.7900 C.2   158  SER158      0.2314
    139  O         17.6650  115.1270   20.6840 O.2   158  SER158     -0.2863
    140  CB        14.9030  115.8410   22.4610 C.3   158  SER158      0.2116
    141  OG        15.1420  116.9310   23.3350 O.3   158  SER158     -0.2180
@<TRIPOS>BOND
     1   139   138    2
     2   138   137    1
     3   140   137    1
     4   140   141    1
     5   137   136    1
     6   116   114   ar
     7   133   132    2
     8   115   114   ar
     9   136   132   am
    10   114   113    1
    11   132   131    1
    12   135   134    1
    13   119   120    2
    14   119   118    1
    15   113   110    1
    16   134   131    1
    17   131   130    1
    18   121   118    1
    19   118   117    1
    20   117   111   am
    21   112   111    2
    22    84    82    1
    23   111   110    1
    24   130   124   am
    25   110   109    1
    26    40    39    1
    27    21    20    2
    28    41    39    1
    29    39    36    1
    30   109   102   am
    31    20    19    1
    32   124   123    1
    33   124   125    2
    34   122   123    1
    35     5     2    1
    36     5     6    1
    37     8     7    2
    38     2     1    1
    39     2     3    1
    40    82    81    1
    41   123   126    1
    42    83    81    1
    43    33    32    2
    44    81    78    1
    45    34    32   am
    46     7     6    1
    47     7     9   am
    48    38    37    2
    49     3     4    2
    50   102   103    2
    51   102   101    1
    52    36    37    1
    53    36    35    1
    54    37    42   am
    55    19    22    1
    56    19    18    1
    57    22    23    1
    58   107   106   ar
    59    32    31    1
    60   128   127   ar
    61    42    43    1
    62   126   127    1
    63    43    44    1
    64    67    66    1
    65   104   101    1
    66   104   105    1
    67   101   100    1
    68    78    77    1
    69    78    79    1
    70    26    27    1
    71   105   106    1
    72   127   129   ar
    73   106   108   ar
    74    24    23    1
    75    27    30    1
    76    27    28    1
    77    77    70   am
    78    65    64    2
    79    23    25    1
    80    66    63    1
    81    31    30    1
    82    79    80    2
    83    79    85   am
    84    92    90   ar
    85    29    28    2
    86    44    46   am
    87    44    45    2
    88    46    47    1
    89    76    74   ar
    90    64    63    1
    91    64    68   am
    92    85    86    1
    93    70    69    1
    94    70    71    2
    95    89    90    1
    96    89    86    1
    97    90    91   ar
    98    63    62    1
    99    69    68    1
   100    69    72    1
   101    75    74   ar
   102    74    73    1
   103    13    12    2
   104    86    87    1
   105    47    48    1
   106    12    11    1
   107    99    97    1
   108    72    73    1
   109    50    48   am
   110    50    51    1
   111    87    88    2
   112    61    59   ar
   113    48    49    2
   114    97    98    1
   115    97    94    1
   116    15    14    1
   117    15    17    1
   118    15    16    1
   119    11    14    1
   120    11    10    1
   121    51    52    1
   122    59    60   ar
   123    59    58    1
   124    93    94    1
   125    54    52   am
   126    54    55    1
   127    94    95    1
   128    58    55    1
   129    52    53    2
   130    55    56    1
   131    95    96    2
   132    56    57    2
