@<TRIPOS>MOLECULE
tmp/2htiA00.pdb
 121 119 0 0 0
SMALL
GASTEIGER

@<TRIPOS>ATOM
      1  N         22.1210   22.6510   58.1650 N.3    17  THR17      -0.1218
      2  CA        23.0890   22.0080   57.3060 C.3    17  THR17       0.1862
      3  C         24.4830   22.2480   57.8140 C.2    17  THR17       0.2287
      4  O         24.8330   23.3640   58.1930 O.2    17  THR17      -0.2866
      5  CB        23.0240   22.5660   55.8990 C.3    17  THR17       0.1770
      6  OG1       21.7320   22.3290   55.3550 O.3    17  THR17      -0.2211
      7  CG2       24.0510   21.8850   55.0030 C.3    17  THR17       0.0375
      8  N         37.9670   16.9310   50.8990 N.3    29  TYR29      -0.1241
      9  CA        36.6320   16.6450   50.3590 C.3    29  TYR29       0.1605
     10  C         35.6270   17.1660   51.3770 C.2    29  TYR29       0.2264
     11  O         35.7090   16.8170   52.5510 O.2    29  TYR29      -0.2867
     12  CB        36.4750   15.1410   50.1680 C.3    29  TYR29       0.0534
     13  CG        35.1470   14.6510   49.6120 C.ar   29  TYR29      -0.0201
     14  CD1       34.5730   15.2250   48.4960 C.ar   29  TYR29      -0.0009
     15  CD2       34.5140   13.5580   50.1680 C.ar   29  TYR29      -0.0009
     16  CE1       33.3920   14.7430   47.9720 C.ar   29  TYR29       0.0417
     17  CE2       33.3300   13.0580   49.6440 C.ar   29  TYR29       0.0417
     18  CZ        32.7790   13.6520   48.5520 C.ar   29  TYR29       0.1957
     19  OH        31.6050   13.1670   48.0500 O.3    29  TYR29      -0.2866
     20  N         31.4400   17.8390   52.1070 N.3    31  ILE31      -0.1231
     21  CA        30.0580   17.6060   51.7010 C.3    31  ILE31       0.1678
     22  C         29.0760   18.1230   52.7170 C.2    31  ILE31       0.2434
     23  O         29.3330   18.0530   53.9200 O.2    31  ILE31      -0.2733
     24  CB        29.7780   16.1080   51.4770 C.3    31  ILE31       0.0265
     25  CG1       30.2090   15.2850   52.6820 C.3    31  ILE31       0.0019
     26  CG2       30.5440   15.6140   50.2570 C.3    31  ILE31       0.0020
     27  CD1       29.7570   13.8570   52.6060 C.3    31  ILE31       0.0001
     28  N         27.9400   18.6470   52.2460 N.am   32  PRO32      -0.2718
     29  CA        26.8870   19.0780   53.1560 C.3    32  PRO32       0.1535
     30  C         26.1000   17.9140   53.7140 C.2    32  PRO32       0.2598
     31  O         25.8390   16.9270   52.9910 O.2    32  PRO32      -0.2715
     32  CB        25.9750   19.9140   52.2610 C.3    32  PRO32       0.0310
     33  CG        26.1440   19.3610   50.9340 C.3    32  PRO32       0.0237
     34  CD        27.5780   18.8920   50.8440 C.3    32  PRO32       0.0939
     35  N         25.6900   18.0420   54.9720 N.am   33  LEU33      -0.1964
     36  CA        24.9270   16.9890   55.6380 C.3    33  LEU33       0.1728
     37  C         23.9150   17.5700   56.5930 C.2    33  LEU33       0.2616
     38  O         24.1710   18.6120   57.1910 O.2    33  LEU33      -0.2715
     39  CB        25.8600   16.1030   56.4540 C.3    33  LEU33       0.0311
     40  CG        26.9390   15.3300   55.7130 C.3    33  LEU33       0.0022
     41  CD1       27.9380   14.7650   56.7340 C.3    33  LEU33       0.0001
     42  CD2       26.2910   14.2150   54.9110 C.3    33  LEU33       0.0001
     43  N         22.7740   16.8880   56.7180 N.am   34  ASN34      -0.1972
     44  CA        21.8320   17.0770   57.8290 C.3    34  ASN34       0.1688
     45  C         22.4250   16.4330   59.0610 C.2    34  ASN34       0.2292
     46  O         23.1270   15.4380   58.9640 O.2    34  ASN34      -0.2864
     47  CB        20.4830   16.4160   57.5220 C.3    34  ASN34       0.1181
     48  CG        19.7270   17.1360   56.4040 C.2    34  ASN34       0.2629
     49  OD1       19.6530   18.3620   56.3890 O.2    34  ASN34      -0.2716
     50  ND2       19.1980   16.3820   55.4570 N.am   34  ASN34      -0.0877
     51  N         25.0750   12.0370   62.2020 N.3    44  PHE44      -0.1227
     52  CA        24.2900   12.0970   60.9900 C.3    44  PHE44       0.1736
     53  C         24.0190   10.6830   60.4800 C.2    44  PHE44       0.2595
     54  O         24.7040    9.7450   60.8540 O.2    44  PHE44      -0.2718
     55  CB        24.9880   12.9660   59.9400 C.3    44  PHE44       0.0547
     56  CG        26.3020   12.4130   59.4400 C.ar   44  PHE44      -0.0202
     57  CD1       26.3390   11.5420   58.3610 C.ar   44  PHE44      -0.0042
     58  CD2       27.4950   12.7960   60.0180 C.ar   44  PHE44      -0.0042
     59  CE1       27.5580   11.0290   57.8830 C.ar   44  PHE44      -0.0003
     60  CE2       28.7210   12.2950   59.5520 C.ar   44  PHE44      -0.0003
     61  CZ        28.7450   11.4080   58.4780 C.ar   44  PHE44      -0.0000
     62  N         22.9830   10.5460   59.6640 N.am   45  HIS45      -0.1961
     63  CA        22.6210    9.2910   59.0540 C.3    45  HIS45       0.1787
     64  C         23.1390    9.3460   57.6300 C.2    45  HIS45       0.2621
     65  O         22.9520   10.3410   56.9460 O.2    45  HIS45      -0.2715
     66  CB        21.1050    9.1320   59.0710 C.3    45  HIS45       0.0785
     67  CG        20.6190    7.8140   58.5490 C.ar   45  HIS45       0.0821
     68  ND1       19.3960    7.6650   57.9320 N.ar   45  HIS45      -0.2267
     69  CD2       21.1830    6.5850   58.5560 C.ar   45  HIS45       0.1154
     70  CE1       19.2260    6.4040   57.5830 C.ar   45  HIS45       0.1986
     71  NE2       20.2950    5.7250   57.9540 N.ar   45  HIS45      -0.2212
     72  N         23.8040    8.2850   57.1890 N.am   46  GLY46      -0.1940
     73  CA        24.4500    8.2770   55.8850 C.3    46  GLY46       0.2014
     74  C         24.5710    6.8860   55.3010 C.2    46  GLY46       0.2638
     75  O         24.5770    5.8950   56.0270 O.2    46  GLY46      -0.2714
     76  N         24.6490    6.8110   53.9800 N.am   47  ALA47      -0.1977
     77  CA        24.8940    5.5450   53.3180 C.3    47  ALA47       0.1597
     78  C         26.2620    5.0730   53.7780 C.2    47  ALA47       0.2287
     79  O         27.1900    5.8840   53.8880 O.2    47  ALA47      -0.2864
     80  CB        24.8530    5.7070   51.8090 C.3    47  ALA47       0.0319
     81  N         28.2820    3.4140   52.1600 N.3    49  GLU49      -0.1231
     82  CA        29.1340    3.2410   50.9960 C.3    49  GLU49       0.1699
     83  C         29.3880    4.6190   50.3940 C.2    49  GLU49       0.2593
     84  O         28.6430    5.5670   50.6670 O.2    49  GLU49      -0.2718
     85  CB        28.4440    2.3300   49.9660 C.3    49  GLU49       0.0402
     86  CG        27.0370    2.7450   49.7110 C.3    49  GLU49       0.1161
     87  CD        26.3000    1.7110   48.9240 C.2    49  GLU49       0.3649
     88  OE1       26.9800    0.7510   48.4610 O.co2  49  GLU49      -0.2457
     89  OE2       25.0640    1.8730   48.7340 O.co2  49  GLU49      -0.2457
     90  N         30.4330    4.7430   49.5840 N.am   50  GLY50      -0.1942
     91  CA        30.7200    6.0090   48.8970 C.3    50  GLY50       0.2014
     92  C         32.1010    6.5740   49.2160 C.2    50  GLY50       0.2639
     93  O         32.8280    6.0440   50.0620 O.2    50  GLY50      -0.2714
     94  N         32.4610    7.6570   48.5320 N.am   51  ARG51      -0.1963
     95  CA        33.7550    8.2940   48.7350 C.3    51  ARG51       0.1729
     96  C         33.9470    8.6850   50.1860 C.2    51  ARG51       0.2616
     97  O         35.0090    8.4440   50.7860 O.2    51  ARG51      -0.2715
     98  CB        33.8680    9.5360   47.8700 C.3    51  ARG51       0.0348
     99  CG        35.1610   10.2630   48.0580 C.3    51  ARG51       0.0492
    100  CD        35.3780   11.3040   46.9720 C.3    51  ARG51       0.2205
    101  NE        36.6480   11.9960   47.1820 N.pl3  51  ARG51      -0.0865
    102  CZ        37.1820   12.8780   46.3410 C.cat  51  ARG51       0.5346
    103  NH1       36.5530   13.1910   45.2150 N.pl3  51  ARG51       0.1354
    104  NH2       38.3480   13.4520   46.6310 N.pl3  51  ARG51       0.1354
    105  N         32.9040    9.2760   50.7600 N.am   52  LYS52      -0.1977
    106  CA        32.9860    9.6950   52.1530 C.3    52  LYS52       0.1596
    107  C         33.4490    8.5590   53.0700 C.2    52  LYS52       0.2287
    108  O         34.2300    8.7880   53.9890 O.2    52  LYS52      -0.2864
    109  CB        31.6560   10.2980   52.6400 C.3    52  LYS52       0.0298
    110  CG        30.5070    9.3170   52.8270 C.3    52  LYS52       0.0038
    111  CD        29.1720   10.0710   52.9710 C.3    52  LYS52       0.0206
    112  CE        27.9870    9.1340   53.1060 C.3    52  LYS52       0.1093
    113  NZ        27.7980    8.2900   51.8810 N.3    52  LYS52      -0.1314
    114  N         18.8220    6.8240   50.9580 N.3   101  LEU101     -0.1245
    115  CA        20.2940    6.8560   50.8360 C.3   101  LEU101      0.1561
    116  C         20.6560    5.4030   50.5440 C.2   101  LEU101      0.2260
    117  O         21.7770    4.9490   50.7560 O.2   101  LEU101     -0.2867
    118  CB        20.9310    7.3130   52.1530 C.3   101  LEU101      0.0270
    119  CG        20.5210    8.6740   52.7430 C.3   101  LEU101      0.0019
    120  CD1       21.0020    8.8180   54.1690 C.3   101  LEU101      0.0001
    121  CD2       21.0660    9.8260   51.8960 C.3   101  LEU101      0.0001
@<TRIPOS>BOND
     1   103   102    1
     2   102   104    1
     3   102   101    2
     4   100   101    1
     5   100    99    1
     6    98    99    1
     7    98    95    1
     8    16    14   ar
     9    16    18   ar
    10    19    18    1
    11    88    87   ar
    12    14    13   ar
    13    94    95    1
    14    94    92   am
    15    18    17   ar
    16    89    87   ar
    17    95    96    1
    18    91    92    1
    19    91    90    1
    20    87    86    1
    21    92    93    2
    22    90    83   am
    23    13    15   ar
    24    13    12    1
    25    17    15   ar
    26    86    85    1
    27    85    82    1
    28    12     9    1
    29    96   105   am
    30    96    97    2
    31    26    24    1
    32     9     8    1
    33     9    10    1
    34    83    84    2
    35    83    82    1
    36   116   117    2
    37   116   115    1
    38   105   106    1
    39   115   114    1
    40   115   118    1
    41    34    33    1
    42    34    28    1
    43    33    32    1
    44    82    81    1
    45    10    11    2
    46    24    21    1
    47    24    25    1
    48    21    20    1
    49    21    22    1
    50    80    77    1
    51   113   112    1
    52   121   119    1
    53   118   119    1
    54   106   109    1
    55   106   107    1
    56    28    22   am
    57    28    29    1
    58    32    29    1
    59    27    25    1
    60   109   110    1
    61    22    23    2
    62   119   120    1
    63   110   111    1
    64   111   112    1
    65    31    30    2
    66   107   108    2
    67    29    30    1
    68    77    78    1
    69    77    76    1
    70    30    35   am
    71    78    79    2
    72    76    74   am
    73    42    40    1
    74    35    36    1
    75     7     5    1
    76    74    73    1
    77    74    75    2
    78     6     5    1
    79    50    48   am
    80    36    39    1
    81    36    37    1
    82    40    39    1
    83    40    41    1
    84    73    72    1
    85     5     2    1
    86    49    48    2
    87    48    47    1
    88    37    43   am
    89    37    38    2
    90    43    44    1
    91    65    64    2
    92    72    64   am
    93     2     3    1
    94     2     1    1
    95    47    44    1
    96    70    68   ar
    97    70    71   ar
    98    64    63    1
    99     3     4    2
   100    44    45    1
   101    59    57   ar
   102    59    61   ar
   103    68    67   ar
   104    71    69   ar
   105    57    56   ar
   106    61    60   ar
   107    67    69   ar
   108    67    66    1
   109    46    45    2
   110    63    66    1
   111    63    62    1
   112    56    55    1
   113    56    58   ar
   114    60    58   ar
   115    62    53   am
   116    55    52    1
   117    53    54    2
   118    53    52    1
   119    52    51    1
