@<TRIPOS>MOLECULE
tmp/2htnC00.pdb
 112 104 0 0 0
SMALL
GASTEIGER

@<TRIPOS>ATOM
      1  N         40.6070   82.7760   30.5860 N.3    19  LEU19      -0.1245
      2  CA        39.8560   83.0600   31.8090 C.3    19  LEU19       0.1561
      3  C         40.0930   84.4840   32.2910 C.2    19  LEU19       0.2260
      4  O         39.1880   85.1640   32.7800 O.2    19  LEU19      -0.2867
      5  CB        40.2260   82.0790   32.9200 C.3    19  LEU19       0.0270
      6  CG        39.7420   80.6410   32.6740 C.3    19  LEU19       0.0019
      7  CD1       40.2550   79.7380   33.7790 C.3    19  LEU19       0.0001
      8  CD2       38.2250   80.5930   32.5970 C.3    19  LEU19       0.0001
      9  N         38.4300   86.9030   29.6820 N.3    22  ILE22      -0.1231
     10  CA        36.9710   86.8940   29.8730 C.3    22  ILE22       0.1692
     11  C         36.5730   87.9640   30.8760 C.2    22  ILE22       0.2592
     12  O         35.8020   88.8580   30.5810 O.2    22  ILE22      -0.2718
     13  CB        36.4510   85.5270   30.3600 C.3    22  ILE22       0.0266
     14  CG1       36.7040   84.4600   29.2910 C.3    22  ILE22       0.0019
     15  CG2       34.9620   85.6080   30.6870 C.3    22  ILE22       0.0020
     16  CD1       36.3700   83.0470   29.7290 C.3    22  ILE22       0.0001
     17  N         37.1610   87.8620   32.0590 N.am   23  ASN23      -0.1974
     18  CA        36.8920   88.7920   33.1630 C.3    23  ASN23       0.1688
     19  C         37.2750   90.2440   32.8820 C.2    23  ASN23       0.2292
     20  O         36.5260   91.1670   33.1710 O.2    23  ASN23      -0.2864
     21  CB        37.5750   88.3160   34.4400 C.3    23  ASN23       0.1181
     22  CG        36.9610   87.0300   34.9820 C.2    23  ASN23       0.2629
     23  OD1       36.6180   86.1350   34.2290 O.2    23  ASN23      -0.2716
     24  ND2       36.8320   86.9330   36.2940 N.am   23  ASN23      -0.0877
     25  N         35.0800   91.6340   30.0050 N.3    26  PHE26      -0.1241
     26  CA        33.7080   91.8020   30.4880 C.3    26  PHE26       0.1605
     27  C         33.5410   92.9960   31.4060 C.2    26  PHE26       0.2264
     28  O         32.5650   93.7280   31.3310 O.2    26  PHE26      -0.2867
     29  CB        33.1740   90.5510   31.1900 C.3    26  PHE26       0.0534
     30  CG        31.6650   90.5310   31.2750 C.ar   26  PHE26      -0.0203
     31  CD1       30.9050   89.9560   30.2640 C.ar   26  PHE26      -0.0042
     32  CD2       31.0060   91.1620   32.3260 C.ar   26  PHE26      -0.0042
     33  CE1       29.5210   89.9860   30.3060 C.ar   26  PHE26      -0.0003
     34  CE2       29.6170   91.2050   32.3780 C.ar   26  PHE26      -0.0003
     35  CZ        28.8730   90.6120   31.3660 C.ar   26  PHE26      -0.0000
     36  N         31.2990   96.5510   30.6470 N.3    30  ARG30      -0.1245
     37  CA        30.2980   97.1670   31.5460 C.3    30  ARG30       0.1563
     38  C         30.7090   98.5220   32.0920 C.2    30  ARG30       0.2260
     39  O         29.8750   99.3620   32.4160 O.2    30  ARG30      -0.2867
     40  CB        29.9360   96.2270   32.6910 C.3    30  ARG30       0.0307
     41  CG        29.2850   94.9310   32.2350 C.3    30  ARG30       0.0489
     42  CD        28.3010   95.1520   31.1240 C.3    30  ARG30       0.2205
     43  NE        27.5520   93.9680   30.7540 N.pl3  30  ARG30      -0.0865
     44  CZ        26.9980   93.7560   29.5630 C.cat  30  ARG30       0.5346
     45  NH1       27.1170   94.6510   28.5960 N.pl3  30  ARG30       0.1354
     46  NH2       26.3280   92.6370   29.3340 N.pl3  30  ARG30       0.1354
     47  N         32.1940   93.5660   24.8690 N.3    45  TYR45      -0.1241
     48  CA        31.2660   92.4820   25.1800 C.3    45  TYR45       0.1605
     49  C         31.5110   91.3260   24.2210 C.2    45  TYR45       0.2264
     50  O         31.8260   90.2210   24.6280 O.2    45  TYR45      -0.2867
     51  CB        29.8180   92.9570   25.0800 C.3    45  TYR45       0.0534
     52  CG        28.8100   91.8730   25.3530 C.ar   45  TYR45      -0.0201
     53  CD1       28.5220   91.4750   26.6560 C.ar   45  TYR45      -0.0009
     54  CD2       28.1370   91.2440   24.3110 C.ar   45  TYR45      -0.0009
     55  CE1       27.5970   90.4690   26.9130 C.ar   45  TYR45       0.0417
     56  CE2       27.2110   90.2420   24.5550 C.ar   45  TYR45       0.0417
     57  CZ        26.9440   89.8580   25.8470 C.ar   45  TYR45       0.1957
     58  OH        26.0150   88.8700   26.0550 O.3    45  TYR45      -0.2866
     59  N         32.9030   87.4830   24.8790 N.3    49  ILE49      -0.1245
     60  CA        32.1970   86.2470   24.5020 C.3    49  ILE49       0.1561
     61  C         33.0970   85.3270   23.6880 C.2    49  ILE49       0.2260
     62  O         33.0710   84.1120   23.8460 O.2    49  ILE49      -0.2867
     63  CB        30.9360   86.5120   23.6890 C.3    49  ILE49       0.0252
     64  CG1       29.9520   87.3590   24.5020 C.3    49  ILE49       0.0019
     65  CG2       30.2770   85.2050   23.2930 C.3    49  ILE49       0.0019
     66  CD1       29.3810   86.6750   25.7140 C.3    49  ILE49       0.0001
     67  N         35.2620   83.4660   25.9140 N.3    52  MET52      -0.1230
     68  CA        34.4460   82.4250   26.5540 C.3    52  MET52       0.1702
     69  C         34.3520   81.1830   25.6700 C.2    52  MET52       0.2592
     70  O         34.4540   80.0500   26.1450 O.2    52  MET52      -0.2718
     71  CB        33.0420   82.9340   26.8530 C.3    52  MET52       0.0401
     72  CG        32.9710   83.9040   27.9980 C.3    52  MET52       0.0596
     73  SD        31.3270   84.5930   28.1740 S.3    52  MET52      -0.1393
     74  CE        31.6740   86.2710   28.7180 C.3    52  MET52       0.0692
     75  N         34.1840   81.4130   24.3790 N.am   53  LYS53      -0.1980
     76  CA        34.1240   80.3210   23.3950 C.3    53  LYS53       0.1596
     77  C         35.4680   79.6220   23.2350 C.2    53  LYS53       0.2287
     78  O         35.5460   78.3930   23.1370 O.2    53  LYS53      -0.2864
     79  CB        33.6840   80.8330   22.0310 C.3    53  LYS53       0.0298
     80  CG        32.2450   81.3380   22.0100 C.3    53  LYS53       0.0038
     81  CD        31.8520   81.8030   20.6280 C.3    53  LYS53       0.0206
     82  CE        30.4290   82.3060   20.6070 C.3    53  LYS53       0.1093
     83  NZ        30.0390   82.7940   19.2590 N.3    53  LYS53      -0.1314
     84  N         37.7650   79.4600   25.4620 N.3    55  ALA55      -0.1231
     85  CA        37.9150   78.7010   26.7090 C.3    55  ALA55       0.1694
     86  C         37.1750   77.3700   26.6580 C.2    55  ALA55       0.2592
     87  O         37.6900   76.3460   27.0790 O.2    55  ALA55      -0.2718
     88  CB        37.4380   79.5110   27.9030 C.3    55  ALA55       0.0304
     89  N         35.9680   77.4100   26.1130 N.am   56  ASP56      -0.1974
     90  CA        35.1420   76.2060   25.9680 C.3    56  ASP56       0.1709
     91  C         35.8700   75.1980   25.0800 C.2    56  ASP56       0.2293
     92  O         35.9350   74.0090   25.3700 O.2    56  ASP56      -0.2864
     93  CB        33.7800   76.5370   25.3700 C.3    56  ASP56       0.1436
     94  CG        32.8500   75.3380   25.3150 C.2    56  ASP56       0.3671
     95  OD1       33.0950   74.3390   26.0250 O.co2  56  ASP56      -0.2456
     96  OD2       31.8550   75.4040   24.5620 O.co2  56  ASP56      -0.2456
     97  N         38.6960   73.7070   27.2020 N.3    59  ILE59      -0.1245
     98  CA        38.1570   72.7980   28.2150 C.3    59  ILE59       0.1561
     99  C         37.7810   71.4420   27.6180 C.2    59  ILE59       0.2260
    100  O         38.1550   70.3970   28.1130 O.2    59  ILE59      -0.2867
    101  CB        36.9300   73.3960   28.9140 C.3    59  ILE59       0.0252
    102  CG1       37.3270   74.6720   29.6460 C.3    59  ILE59       0.0019
    103  CG2       36.3270   72.3910   29.8790 C.3    59  ILE59       0.0019
    104  CD1       36.1680   75.4290   30.2520 C.3    59  ILE59       0.0001
    105  N         40.3230   75.7280   36.0340 N.3    71  LEU71      -0.1245
    106  CA        39.5520   76.9730   36.1180 C.3    71  LEU71       0.1561
    107  C         39.6880   77.6400   37.4810 C.2    71  LEU71       0.2260
    108  O         39.1510   78.7130   37.7280 O.2    71  LEU71      -0.2867
    109  CB        38.0770   76.7180   35.8270 C.3    71  LEU71       0.0270
    110  CG        37.6830   76.1610   34.4530 C.3    71  LEU71       0.0019
    111  CD1       36.1630   76.1450   34.3620 C.3    71  LEU71       0.0001
    112  CD2       38.2450   77.0100   33.3350 C.3    71  LEU71       0.0001
@<TRIPOS>BOND
     1    83    82    1
     2    82    81    1
     3    81    80    1
     4    80    79    1
     5    79    76    1
     6    78    77    2
     7    77    76    1
     8    65    63    1
     9    76    75    1
    10    61    62    2
    11    61    60    1
    12    63    64    1
    13    63    60    1
    14    49    50    2
    15    49    48    1
    16    54    56   ar
    17    54    52   ar
    18    75    69   am
    19    64    66    1
    20    60    59    1
    21    56    57   ar
    22    96    94   ar
    23    47    48    1
    24    91    92    2
    25    91    90    1
    26    51    48    1
    27    51    52    1
    28    94    93    1
    29    94    95   ar
    30    52    53   ar
    31    93    90    1
    32    84    85    1
    33    69    70    2
    34    69    68    1
    35    57    58    1
    36    57    55   ar
    37    67    68    1
    38    90    89    1
    39    89    86   am
    40    68    71    1
    41    53    55   ar
    42    86    85    1
    43    86    87    2
    44    85    88    1
    45    71    72    1
    46    97    98    1
    47    99   100    2
    48    99    98    1
    49    72    73    1
    50    73    74    1
    51    98   101    1
    52    45    44    1
    53   101   102    1
    54   101   103    1
    55    14    16    1
    56    14    13    1
    57    46    44    1
    58    44    43    2
    59   102   104    1
    60     9    10    1
    61    10    13    1
    62    10    11    1
    63    25    26    1
    64    31    33   ar
    65    31    30   ar
    66    33    35   ar
    67    13    15    1
    68    26    29    1
    69    26    27    1
    70    12    11    2
    71     1     2    1
    72    36    37    1
    73    43    42    1
    74    11    17   am
    75    42    41    1
    76    29    30    1
    77    30    32   ar
    78    28    27    2
    79    35    34   ar
    80    37    38    1
    81    37    40    1
    82     2     3    1
    83     2     5    1
    84    17    18    1
    85    38    39    2
    86    41    40    1
    87     3     4    2
    88    32    34   ar
    89     8     6    1
    90     6     5    1
    91     6     7    1
    92    19    18    1
    93    19    20    2
    94    18    21    1
    95   112   110    1
    96    23    22    2
    97   111   110    1
    98    21    22    1
    99   110   109    1
   100    22    24   am
   101   109   106    1
   102   105   106    1
   103   106   107    1
   104   107   108    2
