@<TRIPOS>MOLECULE
tmp/2htrA00.pdb
 171 161 0 0 0
SMALL
GASTEIGER

@<TRIPOS>ATOM
      1  N         14.4150   14.0770   16.8580 N.3    36  ARG36      -0.1231
      2  CA        15.1410   15.3270   16.8730 C.3    36  ARG36       0.1694
      3  C         15.5330   15.5020   15.4050 C.2    36  ARG36       0.2591
      4  O         15.5570   14.5220   14.6530 O.2    36  ARG36      -0.2718
      5  CB        16.3590   15.1740   17.7830 C.3    36  ARG36       0.0321
      6  CG        17.0720   16.4510   18.1710 C.3    36  ARG36       0.0489
      7  CD        16.1960   17.4490   18.8980 C.3    36  ARG36       0.2205
      8  NE        16.3450   18.7350   18.2350 N.pl3  36  ARG36      -0.0865
      9  CZ        17.4720   19.4370   18.2080 C.cat  36  ARG36       0.5346
     10  NH1       17.5130   20.5870   17.5540 N.pl3  36  ARG36       0.1354
     11  NH2       18.5460   19.0160   18.8620 N.pl3  36  ARG36       0.1354
     12  N         15.8140   16.7360   14.9920 N.am   37  GLU37      -0.1979
     13  CA        16.1850   17.0320   13.6010 C.3    37  GLU37       0.1602
     14  C         15.1650   16.5610   12.5490 C.2    37  GLU37       0.2287
     15  O         15.5360   15.8910   11.5860 O.2    37  GLU37      -0.2864
     16  CB        17.5470   16.4120   13.2440 C.3    37  GLU37       0.0415
     17  CG        18.7430   16.9400   14.0120 C.3    37  GLU37       0.1163
     18  CD        18.7820   16.4510   15.4420 C.2    37  GLU37       0.3649
     19  OE1       18.4840   15.2610   15.6730 O.co2  37  GLU37      -0.2457
     20  OE2       19.1260   17.2430   16.3360 O.co2  37  GLU37      -0.2457
     21  N         22.8360   13.7780   21.1240 N.3    69  ASP69      -0.1225
     22  CA        22.9740   14.0590   19.6930 C.3    69  ASP69       0.1805
     23  C         23.4930   12.9210   18.8200 C.2    69  ASP69       0.2597
     24  O         23.1830   12.8770   17.6290 O.2    69  ASP69      -0.2718
     25  CB        23.8640   15.2850   19.4560 C.3    69  ASP69       0.1424
     26  CG        23.2200   16.5650   19.9180 C.2    69  ASP69       0.3668
     27  OD1       22.0030   16.7180   19.7030 O.co2  69  ASP69      -0.2456
     28  OD2       23.9310   17.4210   20.4870 O.co2  69  ASP69      -0.2456
     29  N         24.2820   12.0150   19.3880 N.am   70  ARG70      -0.1979
     30  CA        24.8170   10.9080   18.6110 C.3    70  ARG70       0.1597
     31  C         24.8750    9.6390   19.4350 C.2    70  ARG70       0.2287
     32  O         24.9700    9.6830   20.6600 O.2    70  ARG70      -0.2864
     33  CB        26.2260   11.2360   18.0890 C.3    70  ARG70       0.0334
     34  CG        26.2850   12.4670   17.2080 C.3    70  ARG70       0.0492
     35  CD        27.6670   12.7210   16.6220 C.3    70  ARG70       0.2205
     36  NE        28.6840   12.9550   17.6390 N.pl3  70  ARG70      -0.0865
     37  CZ        28.7390   14.0210   18.4330 C.cat  70  ARG70       0.5346
     38  NH1       29.7130   14.1210   19.3290 N.pl3  70  ARG70       0.1354
     39  NH2       27.8350   14.9850   18.3350 N.pl3  70  ARG70       0.1354
     40  N         21.0100    5.7370   16.8760 N.3    74  ARG74      -0.1245
     41  CA        20.4700    6.8390   16.0760 C.3    74  ARG74       0.1563
     42  C         20.1580    6.3510   14.6580 C.2    74  ARG74       0.2260
     43  O         21.0340    5.8480   13.9640 O.2    74  ARG74      -0.2867
     44  CB        21.5020    7.9790   16.0360 C.3    74  ARG74       0.0307
     45  CG        20.9180    9.3710   16.0820 C.3    74  ARG74       0.0489
     46  CD        20.3820    9.7140   17.4510 C.3    74  ARG74       0.2205
     47  NE        19.3610   10.7550   17.3620 N.pl3  74  ARG74      -0.0865
     48  CZ        19.5930   12.0070   16.9850 C.cat  74  ARG74       0.5346
     49  NH1       18.5940   12.8780   16.9300 N.pl3  74  ARG74       0.1354
     50  NH2       20.8270   12.3880   16.6740 N.pl3  74  ARG74       0.1354
     51  N         23.0900    9.6600   12.6200 N.3    97  TRP97      -0.1227
     52  CA        22.9020   10.5640   13.7400 C.3    97  TRP97       0.1737
     53  C         23.0290   11.9680   13.1640 C.2    97  TRP97       0.2596
     54  O         23.1990   12.9510   13.8850 O.2    97  TRP97      -0.2718
     55  CB        23.8960   10.3260   14.8960 C.3    97  TRP97       0.0564
     56  CG        25.3130    9.9260   14.5560 C.ar   97  TRP97       0.0003
     57  CD1       25.9180    8.7400   14.8700 C.ar   97  TRP97       0.0946
     58  CD2       26.3240   10.7360   13.9460 C.ar   97  TRP97       0.0152
     59  NE1       27.2350    8.7640   14.5050 N.ar   97  TRP97      -0.2442
     60  CE2       27.5160    9.9760   13.9340 C.ar   97  TRP97       0.0810
     61  CE3       26.3430   12.0310   13.4110 C.ar   97  TRP97       0.0012
     62  CZ2       28.7170   10.4660   13.4090 C.ar   97  TRP97       0.0191
     63  CZ3       27.5380   12.5210   12.8880 C.ar   97  TRP97       0.0001
     64  CH2       28.7090   11.7360   12.8920 C.ar   97  TRP97       0.0015
     65  N         22.9400   12.0210   11.8370 N.am   98  SER98      -0.1952
     66  CA        22.9820   13.2370   11.0240 C.3    98  SER98       0.1924
     67  C         22.5920   12.7990    9.6050 C.2    98  SER98       0.2314
     68  O         23.1960   11.8830    9.0590 O.2    98  SER98      -0.2863
     69  CB        24.3780   13.8640   11.0140 C.3    98  SER98       0.2116
     70  OG        24.4150   14.9920   10.1470 O.3    98  SER98      -0.2180
     71  N         33.7390   14.5100   13.4940 N.3   141  ILE141     -0.1245
     72  CA        32.2900   14.5670   13.3600 C.3   141  ILE141      0.1561
     73  C         31.7980   14.9910   11.9740 C.2   141  ILE141      0.2260
     74  O         31.3320   16.1090   11.7890 O.2   141  ILE141     -0.2867
     75  CB        31.6590   15.5130   14.4320 C.3   141  ILE141      0.0252
     76  CG1       32.1160   15.0960   15.8310 C.3   141  ILE141      0.0019
     77  CG2       30.1370   15.4200   14.3880 C.3   141  ILE141      0.0019
     78  CD1       31.5130   15.9180   16.9540 C.3   141  ILE141      0.0001
     79  N         29.3990   15.6950    9.2570 N.3   143  ARG143     -0.1245
     80  CA        27.9760   15.9950    9.3910 C.3   143  ARG143      0.1563
     81  C         27.3730   16.6150    8.1400 C.2   143  ARG143      0.2260
     82  O         28.0940   17.0240    7.2300 O.2   143  ARG143     -0.2867
     83  CB        27.7600   16.9240   10.5930 C.3   143  ARG143      0.0307
     84  CG        28.7840   18.0520   10.7270 C.3   143  ARG143      0.0489
     85  CD        28.7960   18.6030   12.1480 C.3   143  ARG143      0.2205
     86  NE        29.5720   19.8360   12.2930 N.pl3 143  ARG143     -0.0865
     87  CZ        30.9010   19.9130   12.2730 C.cat 143  ARG143      0.5346
     88  NH1       31.4920   21.0960   12.4120 N.pl3 143  ARG143      0.1354
     89  NH2       31.6430   18.8220   12.1150 N.pl3 143  ARG143      0.1354
     90  N         20.6320   17.9540    7.7510 N.3   146  GLU146     -0.1245
     91  CA        19.5450   17.7410    8.7110 C.3   146  GLU146      0.1567
     92  C         18.3430   18.4110    8.0730 C.2   146  GLU146      0.2260
     93  O         17.4060   18.8410    8.7430 O.2   146  GLU146     -0.2867
     94  CB        19.8510   18.3880   10.0690 C.3   146  GLU146      0.0388
     95  CG        21.2390   18.0800   10.6070 C.3   146  GLU146      0.1160
     96  CD        21.5280   16.5930   10.7210 C.2   146  GLU146      0.3649
     97  OE1       20.8580   15.7880   10.0510 O.co2 146  GLU146     -0.2457
     98  OE2       22.4490   16.2240   11.4710 O.co2 146  GLU146     -0.2457
     99  N         33.4290   22.4880   16.0090 N.3   165  ALA165     -0.1245
    100  CA        32.1880   23.2560   16.0680 C.3   165  ALA165      0.1562
    101  C         32.4740   24.7240   16.3900 C.2   165  ALA165      0.2260
    102  O         31.5770   25.5700   16.3170 O.2   165  ALA165     -0.2867
    103  CB        31.2570   22.6660   17.1120 C.3   165  ALA165      0.0290
    104  N         27.3250   25.0720    8.5060 N.3   195  GLU195     -0.1231
    105  CA        26.6980   23.8870    9.0740 C.3   195  GLU195      0.1699
    106  C         25.2010   23.8610    8.8230 C.2   195  GLU195      0.2592
    107  O         24.5700   24.9070    8.6570 O.2   195  GLU195     -0.2718
    108  CB        26.8980   23.8470   10.5910 C.3   195  GLU195      0.0402
    109  CG        28.2490   23.3810   11.0730 C.3   195  GLU195      0.1161
    110  CD        28.3050   23.2780   12.5890 C.2   195  GLU195      0.3649
    111  OE1       29.2770   22.7000   13.1210 O.co2 195  GLU195     -0.2457
    112  OE2       27.3790   23.7820   13.2530 O.co2 195  GLU195     -0.2457
    113  N         24.6470   22.6530    8.8110 N.am  196  GLU196     -0.1979
    114  CA        23.2180   22.4330    8.6570 C.3   196  GLU196      0.1602
    115  C         22.5340   23.3480    7.6510 C.2   196  GLU196      0.2287
    116  O         21.6030   24.0750    7.9930 O.2   196  GLU196     -0.2864
    117  CB        22.5590   22.5780   10.0330 C.3   196  GLU196      0.0415
    118  CG        23.2560   21.7460   11.1060 C.3   196  GLU196      0.1163
    119  CD        22.6390   21.8760   12.4910 C.2   196  GLU196      0.3649
    120  OE1       22.4830   23.0040   12.9840 O.co2 196  GLU196     -0.2457
    121  OE2       22.3210   20.8370   13.1000 O.co2 196  GLU196     -0.2457
    122  N         24.3540   27.6820    8.8550 N.3   211  ARG211     -0.1245
    123  CA        24.6210   28.0720   10.2330 C.3   211  ARG211      0.1563
    124  C         26.1030   28.1920   10.5700 C.2   211  ARG211      0.2260
    125  O         26.8580   27.2400   10.4240 O.2   211  ARG211     -0.2867
    126  CB        23.9630   27.0570   11.1860 C.3   211  ARG211      0.0307
    127  CG        24.5780   26.9650   12.5950 C.3   211  ARG211      0.0489
    128  CD        23.9600   25.7980   13.3720 C.3   211  ARG211      0.2205
    129  NE        24.5770   25.5610   14.6770 N.pl3 211  ARG211     -0.0865
    130  CZ        24.1370   24.6720   15.5690 C.cat 211  ARG211      0.5346
    131  NH1       24.7670   24.5250   16.7330 N.pl3 211  ARG211      0.1354
    132  NH2       23.0620   23.9300   15.3080 N.pl3 211  ARG211      0.1354
    133  N         28.5200   28.3680   13.4220 N.3   213  GLY213     -0.1225
    134  CA        28.5790   28.0500   14.8370 C.3   213  GLY213      0.1811
    135  C         29.8720   28.5760   15.4650 C.2   213  GLY213      0.2280
    136  O         30.1410   28.3280   16.6330 O.2   213  GLY213     -0.2866
    137  N         27.5890   30.3710   19.0330 N.3   264  TYR264     -0.1241
    138  CA        26.7640   29.1710   18.9590 C.3   264  TYR264      0.1605
    139  C         25.8850   29.2580   17.7050 C.2   264  TYR264      0.2264
    140  O         26.3060   29.7990   16.6780 O.2   264  TYR264     -0.2867
    141  CB        25.9240   29.0510   20.2350 C.3   264  TYR264      0.0534
    142  CG        25.1810   27.7450   20.4140 C.ar  264  TYR264     -0.0201
    143  CD1       25.8620   26.5290   20.5150 C.ar  264  TYR264     -0.0009
    144  CD2       23.7920   27.7300   20.5350 C.ar  264  TYR264     -0.0009
    145  CE1       25.1680   25.3290   20.7390 C.ar  264  TYR264      0.0417
    146  CE2       23.0940   26.5450   20.7590 C.ar  264  TYR264      0.0417
    147  CZ        23.7840   25.3510   20.8600 C.ar  264  TYR264      0.1957
    148  OH        23.0770   24.1880   21.0820 O.3   264  TYR264     -0.2866
    149  N         15.8260   29.0130   22.2860 N.3   288  ARG288     -0.1245
    150  CA        15.1780   28.4470   21.1210 C.3   288  ARG288      0.1563
    151  C         13.6840   28.4160   21.4170 C.2   288  ARG288      0.2260
    152  O         13.0940   27.3560   21.6570 O.2   288  ARG288     -0.2867
    153  CB        15.7250   27.0460   20.8490 C.3   288  ARG288      0.0307
    154  CG        17.1880   27.0540   20.4130 C.3   288  ARG288      0.0489
    155  CD        17.6990   25.6510   20.1080 C.3   288  ARG288      0.2205
    156  NE        19.0420   25.6760   19.5380 N.pl3 288  ARG288     -0.0865
    157  CZ        19.7270   24.5960   19.1720 C.cat 288  ARG288      0.5346
    158  NH1       20.9450   24.7220   18.6620 N.pl3 288  ARG288      0.1354
    159  NH2       19.2010   23.3920   19.3210 N.pl3 288  ARG288      0.1354
    160  N         14.9970   24.0830   15.5320 N.3   322  TYR322     -0.1241
    161  CA        15.3960   23.9460   14.1370 C.3   322  TYR322      0.1605
    162  C         14.3080   24.3280   13.1480 C.2   322  TYR322      0.2264
    163  O         13.1270   24.3500   13.4780 O.2   322  TYR322     -0.2867
    164  CB        15.8690   22.5130   13.8540 C.3   322  TYR322      0.0534
    165  CG        17.3200   22.2650   14.2020 C.ar  322  TYR322     -0.0201
    166  CD1       17.9770   23.0700   15.1320 C.ar  322  TYR322     -0.0009
    167  CD2       18.0370   21.2270   13.6060 C.ar  322  TYR322     -0.0009
    168  CE1       19.3010   22.8600   15.4600 C.ar  322  TYR322      0.0417
    169  CE2       19.3750   21.0050   13.9310 C.ar  322  TYR322      0.0417
    170  CZ        19.9980   21.8310   14.8620 C.ar  322  TYR322      0.1957
    171  OH        21.3230   21.6510   15.1940 O.3   322  TYR322     -0.2866
@<TRIPOS>BOND
     1    82    81    2
     2   115   116    2
     3   115   114    1
     4    90    91    1
     5    92    91    1
     6    92    93    2
     7    81    80    1
     8   104   105    1
     9   107   106    2
    10   114   113    1
    11   114   117    1
    12    91    94    1
    13   113   106   am
    14   106   105    1
    15   122   123    1
    16    68    67    2
    17   105   108    1
    18    79    80    1
    19    80    83    1
    20    67    66    1
    21   117   118    1
    22    97    96   ar
    23    94    95    1
    24    70    69    1
    25   123   124    1
    26   123   126    1
    27   125   124    2
    28   108   109    1
    29    83    84    1
    30    95    96    1
    31    96    98   ar
    32    84    85    1
    33    69    66    1
    34    66    65    1
    35   109   110    1
    36   118   119    1
    37   126   127    1
    38    15    14    2
    39    74    73    2
    40    65    53   am
    41    73    72    1
    42    89    87    1
    43    85    86    1
    44    87    86    2
    45    87    88    1
    46   119   120   ar
    47   119   121   ar
    48    14    13    1
    49   110   111   ar
    50   110   112   ar
    51   127   128    1
    52    51    52    1
    53    63    64   ar
    54    63    61   ar
    55    64    62   ar
    56   162   163    2
    57   162   161    1
    58    53    52    1
    59    53    54    2
    60    16    13    1
    61    16    17    1
    62    72    71    1
    63    72    75    1
    64   128   129    1
    65    62    60   ar
    66    61    58   ar
    67   133   134    1
    68    13    12    1
    69   167   169   ar
    70   167   165   ar
    71    52    55    1
    72   164   161    1
    73   164   165    1
    74   169   170   ar
    75    60    58   ar
    76    60    59   ar
    77    58    56   ar
    78    43    42    2
    79    17    18    1
    80   161   160    1
    81   165   166   ar
    82    77    75    1
    83    75    76    1
    84    59    57   ar
    85    56    57   ar
    86    56    55    1
    87     4     3    2
    88    42    41    1
    89   129   130    2
    90   134   135    1
    91   170   171    1
    92   170   168   ar
    93    12     3   am
    94   166   168   ar
    95   132   130    1
    96     3     2    1
    97    18    19   ar
    98    18    20   ar
    99   135   136    2
   100   130   131    1
   101    76    78    1
   102    99   100    1
   103    44    41    1
   104    44    45    1
   105   100   101    1
   106   100   103    1
   107    41    40    1
   108    45    46    1
   109   102   101    2
   110    35    34    1
   111    35    36    1
   112    50    48    1
   113   140   139    2
   114     1     2    1
   115     2     5    1
   116    49    48    1
   117    48    47    2
   118    34    33    1
   119    47    46    1
   120    10     9    1
   121    24    23    2
   122    36    37    2
   123   139   138    1
   124     5     6    1
   125    33    30    1
   126     6     7    1
   127     9     8    2
   128     9    11    1
   129     8     7    1
   130    39    37    1
   131    37    38    1
   132    30    29    1
   133    30    31    1
   134   158   157    1
   135    23    29   am
   136    23    22    1
   137   138   137    1
   138   138   141    1
   139   157   159    1
   140   157   156    2
   141    31    32    2
   142    25    22    1
   143    25    26    1
   144   156   155    1
   145    22    21    1
   146    27    26   ar
   147    26    28   ar
   148   155   154    1
   149   141   142    1
   150   154   153    1
   151   142   143   ar
   152   142   144   ar
   153   143   145   ar
   154   144   146   ar
   155   145   147   ar
   156   146   147   ar
   157   153   150    1
   158   147   148    1
   159   150   151    1
   160   150   149    1
   161   151   152    2
