@<TRIPOS>MOLECULE
tmp/2htuA00.pdb
 179 168 0 0 0
SMALL
GASTEIGER

@<TRIPOS>ATOM
      1  N         30.4170   30.9080    9.5310 N.3    36  ARG36      -0.1231
      2  CA        29.7510   29.6210    9.5140 C.3    36  ARG36       0.1694
      3  C         29.4210   29.3830    8.0330 C.2    36  ARG36       0.2591
      4  O         29.4440   30.3270    7.2420 O.2    36  ARG36      -0.2718
      5  CB        28.5030   29.6870   10.4000 C.3    36  ARG36       0.0321
      6  CG        27.8700   28.3540   10.7420 C.3    36  ARG36       0.0489
      7  CD        28.7890   27.3530   11.4360 C.3    36  ARG36       0.2205
      8  NE        28.5720   26.0260   10.8440 N.pl3  36  ARG36      -0.0865
      9  CZ        27.4270   25.3490   10.8750 C.cat  36  ARG36       0.5346
     10  NH1       27.3410   24.1620   10.2900 N.pl3  36  ARG36       0.1354
     11  NH2       26.3730   25.8270   11.5180 N.pl3  36  ARG36       0.1354
     12  N         29.1570   28.1320    7.6580 N.am   37  GLU37      -0.1979
     13  CA        28.8360   27.7560    6.2680 C.3    37  GLU37       0.1602
     14  C         29.7970   28.2490    5.1920 C.2    37  GLU37       0.2287
     15  O         29.4130   29.0160    4.3180 O.2    37  GLU37      -0.2864
     16  CB        27.4270   28.2230    5.8590 C.3    37  GLU37       0.0415
     17  CG        26.2930   27.7040    6.7080 C.3    37  GLU37       0.1163
     18  CD        26.2730   28.3320    8.0790 C.2    37  GLU37       0.3649
     19  OE1       26.6280   29.5230    8.1880 O.co2  37  GLU37      -0.2457
     20  OE2       25.8950   27.6400    9.0440 O.co2  37  GLU37      -0.2457
     21  N         29.5970   32.9490    5.4350 N.3    52  LEU52      -0.1245
     22  CA        28.5510   33.7450    6.0510 C.3    52  LEU52       0.1561
     23  C         29.0790   34.3520    7.3510 C.2    52  LEU52       0.2260
     24  O         29.3060   33.6480    8.3360 O.2    52  LEU52      -0.2867
     25  CB        27.3270   32.8690    6.3310 C.3    52  LEU52       0.0270
     26  CG        26.7020   32.2130    5.0930 C.3    52  LEU52       0.0019
     27  CD1       25.4600   31.4360    5.5020 C.3    52  LEU52       0.0001
     28  CD2       26.3400   33.2810    4.0740 C.3    52  LEU52       0.0001
     29  N         22.1360   30.9520   13.7630 N.3    69  ASP69      -0.1225
     30  CA        21.8650   30.7190   12.3430 C.3    69  ASP69       0.1805
     31  C         21.4250   31.9180   11.5040 C.2    69  ASP69       0.2597
     32  O         21.9860   32.1560   10.4440 O.2    69  ASP69      -0.2718
     33  CB        20.8270   29.5980   12.1600 C.3    69  ASP69       0.1424
     34  CG        21.4030   28.2080   12.4000 C.2    69  ASP69       0.3668
     35  OD1       22.5730   27.9680   12.0310 O.co2  69  ASP69      -0.2456
     36  OD2       20.6750   27.3480   12.9400 O.co2  69  ASP69      -0.2456
     37  N         20.4280   32.6680   11.9600 N.am   70  ARG70      -0.1979
     38  CA        19.9340   33.8070   11.1870 C.3    70  ARG70       0.1597
     39  C         19.7920   35.1250   11.9600 C.2    70  ARG70       0.2287
     40  O         19.3280   35.1520   13.0940 O.2    70  ARG70      -0.2864
     41  CB        18.5840   33.4400   10.5430 C.3    70  ARG70       0.0334
     42  CG        18.6390   32.1690    9.6950 C.3    70  ARG70       0.0492
     43  CD        17.3010   31.8150    9.0660 C.3    70  ARG70       0.2205
     44  NE        16.2470   31.6650   10.0630 N.pl3  70  ARG70      -0.0865
     45  CZ        16.2040   30.7070   10.9910 C.cat  70  ARG70       0.5346
     46  NH1       15.1950   30.6780   11.8540 N.pl3  70  ARG70       0.1354
     47  NH2       17.1490   29.7720   11.0510 N.pl3  70  ARG70       0.1354
     48  N         24.0060   39.1500    9.3590 N.3    74  ARG74      -0.1245
     49  CA        24.6540   38.0940    8.5970 C.3    74  ARG74       0.1563
     50  C         24.8950   38.5220    7.1520 C.2    74  ARG74       0.2260
     51  O         23.9640   38.9350    6.4720 O.2    74  ARG74      -0.2867
     52  CB        23.7630   36.8440    8.6310 C.3    74  ARG74       0.0307
     53  CG        24.5020   35.5120    8.6440 C.3    74  ARG74       0.0489
     54  CD        24.8310   35.0870   10.0650 C.3    74  ARG74       0.2205
     55  NE        25.8490   34.0360   10.1110 N.pl3  74  ARG74      -0.0865
     56  CZ        25.6360   32.7670    9.7800 C.cat  74  ARG74       0.5346
     57  NH1       26.6230   31.8890    9.8490 N.pl3  74  ARG74       0.1354
     58  NH2       24.4330   32.3740    9.3910 N.pl3  74  ARG74       0.1354
     59  N         21.9350   35.1070    5.3500 N.3    97  TRP97      -0.1227
     60  CA        22.1620   34.1310    6.3970 C.3    97  TRP97       0.1737
     61  C         22.0780   32.7450    5.7430 C.2    97  TRP97       0.2596
     62  O         22.0860   31.7200    6.4160 O.2    97  TRP97      -0.2718
     63  CB        21.1580   34.2670    7.5640 C.3    97  TRP97       0.0564
     64  CG        19.7810   34.7800    7.2350 C.ar   97  TRP97       0.0003
     65  CD1       19.2610   35.9980    7.5790 C.ar   97  TRP97       0.0946
     66  CD2       18.7260   34.0720    6.5630 C.ar   97  TRP97       0.0152
     67  NE1       17.9540   36.0880    7.1700 N.ar   97  TRP97      -0.2442
     68  CE2       17.5990   34.9220    6.5430 C.ar   97  TRP97       0.0810
     69  CE3       18.6260   32.8040    5.9780 C.ar   97  TRP97       0.0012
     70  CZ2       16.3830   34.5470    5.9610 C.ar   97  TRP97       0.0191
     71  CZ3       17.4150   32.4310    5.3960 C.ar   97  TRP97       0.0001
     72  CH2       16.3100   33.3020    5.3930 C.ar   97  TRP97       0.0015
     73  N         22.0180   32.7530    4.4140 N.am   98  SER98      -0.1952
     74  CA        21.9850   31.5570    3.5760 C.3    98  SER98       0.1924
     75  C         22.4530   32.0380    2.1860 C.2    98  SER98       0.2314
     76  O         22.0630   33.1130    1.7450 O.2    98  SER98      -0.2863
     77  CB        20.5670   30.9660    3.5020 C.3    98  SER98       0.2116
     78  OG        20.5120   29.8390    2.6230 O.3    98  SER98      -0.2180
     79  N         11.4490   30.2170    5.9840 N.3   141  ILE141     -0.1245
     80  CA        12.8940   30.1890    5.8170 C.3   141  ILE141      0.1561
     81  C         13.3360   29.8050    4.4000 C.2   141  ILE141      0.2260
     82  O         13.8380   28.7030    4.1810 O.2   141  ILE141     -0.2867
     83  CB        13.5580   29.2220    6.8320 C.3   141  ILE141      0.0252
     84  CG1       13.0000   29.4660    8.2380 C.3   141  ILE141      0.0019
     85  CG2       15.0640   29.4330    6.8480 C.3   141  ILE141      0.0019
     86  CD1       13.6060   28.5810    9.3010 C.3   141  ILE141      0.0001
     87  N         15.6610   29.1970    1.7030 N.3   143  ARG143     -0.1245
     88  CA        17.1000   28.9720    1.8310 C.3   143  ARG143      0.1563
     89  C         17.7300   28.2380    0.6470 C.2   143  ARG143      0.2260
     90  O         17.0290   27.7170   -0.2320 O.2   143  ARG143     -0.2867
     91  CB        17.3760   28.1930    3.1220 C.3   143  ARG143      0.0307
     92  CG        16.5700   26.8970    3.2690 C.3   143  ARG143      0.0489
     93  CD        16.5810   26.3980    4.7280 C.3   143  ARG143      0.2205
     94  NE        15.8270   25.1580    4.8940 N.pl3 143  ARG143     -0.0865
     95  CZ        14.5030   25.0860    4.9970 C.cat 143  ARG143      0.5346
     96  NH1       13.9140   23.9050    5.1330 N.pl3 143  ARG143      0.1354
     97  NH2       13.7700   26.1920    4.9820 N.pl3 143  ARG143      0.1354
     98  N         24.4620   26.6110    0.3360 N.3   146  GLU146     -0.1245
     99  CA        25.5450   26.7840    1.3000 C.3   146  GLU146      0.1567
    100  C         26.7940   26.1940    0.6780 C.2   146  GLU146      0.2260
    101  O         27.7570   25.8750    1.3750 O.2   146  GLU146     -0.2867
    102  CB        25.2520   26.0910    2.6350 C.3   146  GLU146      0.0388
    103  CG        23.8950   26.4370    3.2320 C.3   146  GLU146      0.1160
    104  CD        23.6930   27.9240    3.4880 C.2   146  GLU146      0.3649
    105  OE1       24.1810   28.7700    2.7080 O.co2 146  GLU146     -0.2457
    106  OE2       23.0100   28.2480    4.4760 O.co2 146  GLU146     -0.2457
    107  N         11.7730   22.1980    8.3090 N.3   165  ALA165     -0.1245
    108  CA        13.0930   21.5750    8.3130 C.3   165  ALA165      0.1562
    109  C         13.0240   20.1390    8.8400 C.2   165  ALA165      0.2260
    110  O         14.0570   19.4900    9.0100 O.2   165  ALA165     -0.2867
    111  CB        14.0620   22.3980    9.1540 C.3   165  ALA165      0.0290
    112  N         17.7410   19.5220    1.3570 N.3   195  GLU195     -0.1231
    113  CA        18.3740   20.6760    1.9840 C.3   195  GLU195      0.1699
    114  C         19.8150   20.7660    1.5150 C.2   195  GLU195      0.2592
    115  O         20.4230   19.7560    1.1460 O.2   195  GLU195     -0.2718
    116  CB        18.4300   20.5270    3.5100 C.3   195  GLU195      0.0402
    117  CG        17.1070   20.5020    4.2430 C.3   195  GLU195      0.1161
    118  CD        16.5860   21.8880    4.5710 C.2   195  GLU195      0.3649
    119  OE1       15.6390   21.9870    5.3780 O.co2 195  GLU195     -0.2457
    120  OE2       17.1130   22.8750    4.0200 O.co2 195  GLU195     -0.2457
    121  N         20.3420   21.9860    1.5470 N.am  196  GLU196     -0.1979
    122  CA        21.7310   22.3000    1.2260 C.3   196  GLU196      0.1602
    123  C         22.4050   21.3860    0.2120 C.2   196  GLU196      0.2287
    124  O         23.3920   20.7220    0.5110 O.2   196  GLU196     -0.2864
    125  CB        22.5220   22.2970    2.5330 C.3   196  GLU196      0.0415
    126  CG        21.7750   22.9970    3.6690 C.3   196  GLU196      0.1163
    127  CD        22.4340   22.8210    5.0260 C.2   196  GLU196      0.3649
    128  OE1       22.6990   21.6630    5.4180 O.co2 196  GLU196     -0.2457
    129  OE2       22.6790   23.8410    5.7000 O.co2 196  GLU196     -0.2457
    130  N         20.8910   16.9090    1.5130 N.3   211  ARG211     -0.1245
    131  CA        20.6530   16.5350    2.9070 C.3   211  ARG211      0.1563
    132  C         19.1580   16.3940    3.2150 C.2   211  ARG211      0.2260
    133  O         18.3580   17.2730    2.9050 O.2   211  ARG211     -0.2867
    134  CB        21.2840   17.5980    3.8280 C.3   211  ARG211      0.0307
    135  CG        20.8400   17.5920    5.2980 C.3   211  ARG211      0.0489
    136  CD        21.4610   18.7810    6.0610 C.3   211  ARG211      0.2205
    137  NE        20.9110   18.9740    7.4060 N.pl3 211  ARG211     -0.0865
    138  CZ        21.2000   20.0110    8.1970 C.cat 211  ARG211      0.5346
    139  NH1       20.6570   20.1020    9.4070 N.pl3 211  ARG211      0.1354
    140  NH2       22.0270   20.9660    7.7820 N.pl3 211  ARG211      0.1354
    141  N         16.8540   16.2580    6.2180 N.3   213  GLY213     -0.1225
    142  CA        16.7670   16.4620    7.6540 C.3   213  GLY213      0.1811
    143  C         15.4440   15.9930    8.2350 C.2   213  GLY213      0.2280
    144  O         15.1090   16.3370    9.3690 O.2   213  GLY213     -0.2866
    145  N         17.4970   14.5580   12.1840 N.3   264  TYR264     -0.1241
    146  CA        18.3940   15.6700   11.8660 C.3   264  TYR264      0.1605
    147  C         19.3020   15.5190   10.6390 C.2   264  TYR264      0.2264
    148  O         18.8730   15.0360    9.5960 O.2   264  TYR264     -0.2867
    149  CB        19.2340   15.9980   13.1040 C.3   264  TYR264      0.0534
    150  CG        19.6870   17.4350   13.1650 C.ar  264  TYR264     -0.0201
    151  CD1       18.7730   18.4780   12.9820 C.ar  264  TYR264     -0.0009
    152  CD2       21.0240   17.7620   13.4160 C.ar  264  TYR264     -0.0009
    153  CE1       19.1750   19.8160   13.0460 C.ar  264  TYR264      0.0417
    154  CE2       21.4400   19.0960   13.4860 C.ar  264  TYR264      0.0417
    155  CZ        20.5060   20.1170   13.2990 C.ar  264  TYR264      0.1957
    156  OH        20.8940   21.4400   13.3740 O.3   264  TYR264     -0.2866
    157  N         29.3070   15.6610   15.0170 N.3   288  ARG288     -0.1245
    158  CA        30.0130   16.2940   13.9130 C.3   288  ARG288      0.1563
    159  C         31.5000   16.3570   14.2170 C.2   288  ARG288      0.2260
    160  O         32.0680   17.4290   14.4660 O.2   288  ARG288     -0.2867
    161  CB        29.4430   17.6900   13.6580 C.3   288  ARG288      0.0307
    162  CG        28.0100   17.6440   13.1480 C.3   288  ARG288      0.0489
    163  CD        27.4290   19.0320   12.9210 C.3   288  ARG288      0.2205
    164  NE        26.1190   18.9290   12.2880 N.pl3 288  ARG288     -0.0865
    165  CZ        25.3750   19.9630   11.9150 C.cat 288  ARG288      0.5346
    166  NH1       24.1970   19.7470   11.3460 N.pl3 288  ARG288      0.1354
    167  NH2       25.8050   21.2040   12.1060 N.pl3 288  ARG288      0.1354
    168  N         29.9330   20.8860    8.1790 N.3   322  TYR322     -0.1241
    169  CA        29.5500   20.9390    6.7720 C.3   322  TYR322      0.1605
    170  C         30.6540   20.5220    5.7990 C.2   322  TYR322      0.2264
    171  O         31.8340   20.4370    6.1610 O.2   322  TYR322     -0.2867
    172  CB        29.0590   22.3480    6.4280 C.3   322  TYR322      0.0534
    173  CG        27.6050   22.6010    6.7810 C.ar  322  TYR322     -0.0201
    174  CD1       26.9870   21.9210    7.8320 C.ar  322  TYR322     -0.0009
    175  CD2       26.8530   23.5450    6.0820 C.ar  322  TYR322     -0.0009
    176  CE1       25.6570   22.1740    8.1800 C.ar  322  TYR322      0.0417
    177  CE2       25.5280   23.8050    6.4220 C.ar  322  TYR322      0.0417
    178  CZ        24.9370   23.1140    7.4710 C.ar  322  TYR322      0.1957
    179  OH        23.6200   23.3540    7.7950 O.3   322  TYR322     -0.2866
@<TRIPOS>BOND
     1    90    89    2
     2   123   124    2
     3   123   122    1
     4    98    99    1
     5    89    88    1
     6   100    99    1
     7   100   101    2
     8   115   114    2
     9   122   121    1
    10   122   125    1
    11    99   102    1
    12   112   113    1
    13   130   131    1
    14   114   121   am
    15   114   113    1
    16    87    88    1
    17    76    75    2
    18    88    91    1
    19   113   116    1
    20    75    74    1
    21   125   126    1
    22    78    77    1
    23   102   103    1
    24   105   104   ar
    25   133   132    2
    26   131   132    1
    27   131   134    1
    28    91    92    1
    29   103   104    1
    30    92    93    1
    31   104   106   ar
    32    77    74    1
    33   116   117    1
    34    74    73    1
    35   126   127    1
    36   134   135    1
    37   120   118   ar
    38    28    26    1
    39    82    81    2
    40   117   118    1
    41    15    14    2
    42    81    80    1
    43    73    61   am
    44   118   119   ar
    45    93    94    1
    46    94    95    2
    47    97    95    1
    48    95    96    1
    49   127   128   ar
    50   127   129   ar
    51    26    27    1
    52    26    25    1
    53    14    13    1
    54   135   136    1
    55    59    60    1
    56    72    71   ar
    57    72    70   ar
    58    71    69   ar
    59    21    22    1
    60    61    60    1
    61    61    62    2
    62   170   171    2
    63   170   169    1
    64    80    79    1
    65    80    83    1
    66    16    13    1
    67    16    17    1
    68    70    68   ar
    69    69    66   ar
    70    22    25    1
    71    22    23    1
    72   136   137    1
    73   175   177   ar
    74   175   173   ar
    75   141   142    1
    76    13    12    1
    77    60    63    1
    78   177   178   ar
    79   172   169    1
    80   172   173    1
    81    51    50    2
    82    68    66   ar
    83    68    67   ar
    84    66    64   ar
    85    17    18    1
    86   169   168    1
    87   173   174   ar
    88    83    85    1
    89    83    84    1
    90    50    49    1
    91    67    65   ar
    92    64    63    1
    93    64    65   ar
    94     4     3    2
    95    23    24    2
    96   137   138    2
    97   178   179    1
    98   178   176   ar
    99   142   143    1
   100    12     3   am
   101   140   138    1
   102   174   176   ar
   103     3     2    1
   104    18    19   ar
   105    18    20   ar
   106   138   139    1
   107   143   144    2
   108    84    86    1
   109   107   108    1
   110   108   109    1
   111   108   111    1
   112    49    52    1
   113    49    48    1
   114    52    53    1
   115    53    54    1
   116   109   110    2
   117    43    42    1
   118    43    44    1
   119    58    56    1
   120     2     1    1
   121     2     5    1
   122   148   147    2
   123    42    41    1
   124    56    57    1
   125    56    55    2
   126    44    45    2
   127    54    55    1
   128    10     9    1
   129     5     6    1
   130    32    31    2
   131    41    38    1
   132   147   146    1
   133     6     7    1
   134     8     9    2
   135     8     7    1
   136     9    11    1
   137    45    47    1
   138    45    46    1
   139    38    39    1
   140    38    37    1
   141   166   165    1
   142    31    37   am
   143    31    30    1
   144   146   145    1
   145   146   149    1
   146   165   167    1
   147   165   164    2
   148    39    40    2
   149    35    34   ar
   150    33    30    1
   151    33    34    1
   152   164   163    1
   153    30    29    1
   154    34    36   ar
   155   163   162    1
   156   151   153   ar
   157   151   150   ar
   158   153   155   ar
   159   149   150    1
   160   162   161    1
   161   150   152   ar
   162   155   156    1
   163   155   154   ar
   164   152   154   ar
   165   161   158    1
   166   158   159    1
   167   158   157    1
   168   159   160    2
