@<TRIPOS>MOLECULE
tmp/2htwA00.pdb
 165 156 0 0 0
SMALL
GASTEIGER

@<TRIPOS>ATOM
      1  N          2.0890  -19.7980  -61.2140 N.3    37  ARG37      -0.1231
      2  CA         2.6070  -21.1520  -61.2160 C.3    37  ARG37       0.1694
      3  C          2.2920  -21.6790  -62.5870 C.2    37  ARG37       0.2591
      4  O          1.4090  -21.1570  -63.2560 O.2    37  ARG37      -0.2718
      5  CB         1.8980  -22.0280  -60.1920 C.3    37  ARG37       0.0321
      6  CG         2.6940  -22.3210  -58.9390 C.3    37  ARG37       0.0489
      7  CD         4.1300  -22.6990  -59.2620 C.3    37  ARG37       0.2205
      8  NE         4.2760  -23.9460  -60.0080 N.pl3  37  ARG37      -0.0865
      9  CZ         3.9390  -25.1380  -59.5330 C.cat  37  ARG37       0.5346
     10  NH1        4.1180  -26.2220  -60.2750 N.pl3  37  ARG37       0.1354
     11  NH2        3.4120  -25.2400  -58.3160 N.pl3  37  ARG37       0.1354
     12  N          3.0060  -22.7140  -63.0090 N.am   38  GLU38      -0.1979
     13  CA         2.7680  -23.3260  -64.3150 C.3    38  GLU38       0.1602
     14  C          3.0920  -22.3910  -65.4740 C.2    38  GLU38       0.2287
     15  O          2.3960  -22.4020  -66.4890 O.2    38  GLU38      -0.2864
     16  CB         1.2940  -23.7390  -64.4490 C.3    38  GLU38       0.0415
     17  CG         0.5570  -24.0560  -63.1390 C.3    38  GLU38       0.1163
     18  CD         1.0090  -25.3520  -62.5110 C.2    38  GLU38       0.3649
     19  OE1        0.6160  -25.6340  -61.3550 O.co2  38  GLU38      -0.2457
     20  OE2        1.7570  -26.0890  -63.1870 O.co2  38  GLU38      -0.2457
     21  N         -3.3480  -26.9060  -57.2370 N.3    70  ASP70      -0.1225
     22  CA        -3.5820  -26.6460  -58.6400 C.3    70  ASP70       0.1805
     23  C         -5.0720  -26.8540  -58.8330 C.2    70  ASP70       0.2597
     24  O         -5.6890  -27.5860  -58.0650 O.2    70  ASP70      -0.2718
     25  CB        -2.8080  -27.6520  -59.4820 C.3    70  ASP70       0.1424
     26  CG        -1.6830  -28.3220  -58.7070 C.2    70  ASP70       0.3668
     27  OD1       -0.8780  -27.6030  -58.0790 O.co2  70  ASP70      -0.2456
     28  OD2       -1.5960  -29.5690  -58.7340 O.co2  70  ASP70      -0.2456
     29  N         -5.6490  -26.2010  -59.8380 N.am   71  ARG71      -0.1979
     30  CA        -7.0810  -26.3230  -60.1600 C.3    71  ARG71       0.1597
     31  C         -8.0940  -25.5730  -59.2790 C.2    71  ARG71       0.2287
     32  O         -8.1670  -25.7620  -58.0630 O.2    71  ARG71      -0.2864
     33  CB        -7.5010  -27.8020  -60.2210 C.3    71  ARG71       0.0334
     34  CG        -6.7310  -28.6580  -61.2250 C.3    71  ARG71       0.0492
     35  CD        -7.4440  -29.9770  -61.4900 C.3    71  ARG71       0.2205
     36  NE        -7.7000  -30.7270  -60.2640 N.pl3  71  ARG71      -0.0865
     37  CZ        -6.7980  -31.4690  -59.6320 C.cat  71  ARG71       0.5346
     38  NH1       -7.1320  -32.1090  -58.5210 N.pl3  71  ARG71       0.1354
     39  NH2       -5.5700  -31.5850  -60.1170 N.pl3  71  ARG71       0.1354
     40  N         -6.9940  -24.2800  -65.4770 N.3    98  TRP98      -0.1227
     41  CA        -5.9960  -24.6360  -64.4670 C.3    98  TRP98       0.1737
     42  C         -4.9540  -25.5690  -65.0490 C.2    98  TRP98       0.2596
     43  O         -4.2280  -26.2570  -64.3360 O.2    98  TRP98      -0.2718
     44  CB        -6.6390  -25.3050  -63.2520 C.3    98  TRP98       0.0564
     45  CG        -7.7980  -26.1900  -63.5550 C.ar   98  TRP98       0.0003
     46  CD1       -9.1050  -25.9480  -63.2450 C.ar   98  TRP98       0.0946
     47  CD2       -7.7690  -27.4640  -64.2140 C.ar   98  TRP98       0.0152
     48  NE1       -9.8940  -26.9920  -63.6680 N.ar   98  TRP98      -0.2442
     49  CE2       -9.1010  -27.9360  -64.2670 C.ar   98  TRP98       0.0810
     50  CE3       -6.7500  -28.2540  -64.7640 C.ar   98  TRP98       0.0012
     51  CZ2       -9.4430  -29.1670  -64.8540 C.ar   98  TRP98       0.0191
     52  CZ3       -7.0910  -29.4830  -65.3490 C.ar   98  TRP98       0.0001
     53  CH2       -8.4250  -29.9210  -65.3870 C.ar   98  TRP98       0.0015
     54  N         -4.8960  -25.5810  -66.3660 N.am   99  SER99      -0.1952
     55  CA        -3.9460  -26.3850  -67.1060 C.3    99  SER99       0.1924
     56  C         -4.1860  -25.9230  -68.5180 C.2    99  SER99       0.2314
     57  O         -5.3160  -25.5760  -68.8650 O.2    99  SER99      -0.2863
     58  CB        -4.2590  -27.8740  -66.9800 C.3    99  SER99       0.2116
     59  OG        -3.5070  -28.6340  -67.9120 O.3    99  SER99      -0.2180
     60  N         -9.4200  -35.6830  -64.6690 N.3   142  ILE142     -0.1245
     61  CA        -8.5640  -34.5310  -64.8980 C.3   142  ILE142      0.1561
     62  C         -7.9350  -34.4700  -66.2810 C.2   142  ILE142      0.2260
     63  O         -6.7350  -34.6970  -66.4260 O.2   142  ILE142     -0.2867
     64  CB        -7.4200  -34.4760  -63.8490 C.3   142  ILE142      0.0252
     65  CG1       -7.9990  -34.4940  -62.4410 C.3   142  ILE142      0.0019
     66  CG2       -6.5980  -33.2070  -64.0240 C.3   142  ILE142      0.0019
     67  CD1       -6.9570  -34.3690  -61.3740 C.3   142  ILE142      0.0001
     68  N         -5.8700  -33.1690  -68.9180 N.3   144  ARG144     -0.1245
     69  CA        -4.8270  -32.1840  -68.7260 C.3   144  ARG144      0.1563
     70  C         -3.8160  -32.2320  -69.8670 C.2   144  ARG144      0.2260
     71  O         -3.5010  -33.3070  -70.3860 O.2   144  ARG144     -0.2867
     72  CB        -4.1610  -32.4520  -67.3840 C.3   144  ARG144      0.0307
     73  CG        -3.7180  -33.8960  -67.1970 C.3   144  ARG144      0.0489
     74  CD        -3.5350  -34.2460  -65.7210 C.3   144  ARG144      0.2205
     75  NE        -2.8840  -35.5390  -65.5280 N.pl3 144  ARG144     -0.0865
     76  CZ        -3.3410  -36.6900  -66.0110 C.cat 144  ARG144      0.5346
     77  NH1       -2.6770  -37.8120  -65.7830 N.pl3 144  ARG144      0.1354
     78  NH2       -4.4620  -36.7240  -66.7210 N.pl3 144  ARG144      0.1354
     79  N          1.0300  -27.9350  -70.3390 N.3   147  GLU147     -0.1245
     80  CA         1.4300  -27.0070  -69.2910 C.3   147  GLU147      0.1567
     81  C          2.7390  -26.4040  -69.7940 C.2   147  GLU147      0.2260
     82  O          3.6250  -26.0630  -69.0210 O.2   147  GLU147     -0.2867
     83  CB         1.6510  -27.7570  -67.9830 C.3   147  GLU147      0.0388
     84  CG         0.4340  -28.5340  -67.5170 C.3   147  GLU147      0.1160
     85  CD        -0.6310  -27.6280  -66.9540 C.2   147  GLU147      0.3649
     86  OE1       -0.8170  -26.5270  -67.5250 O.co2 147  GLU147     -0.2457
     87  OE2       -1.2800  -28.0170  -65.9520 O.co2 147  GLU147     -0.2457
     88  N         -3.0600  -40.4690  -61.7930 N.3   166  SER166     -0.1217
     89  CA        -1.6580  -40.1120  -61.5930 C.3   166  SER166      0.1889
     90  C         -1.0020  -41.3840  -61.0960 C.2   166  SER166      0.2288
     91  O          0.1830  -41.6280  -61.3300 O.2   166  SER166     -0.2866
     92  CB        -1.5070  -39.0310  -60.5240 C.3   166  SER166      0.2089
     93  OG        -0.1580  -38.9480  -60.0880 O.3   166  SER166     -0.2183
     94  N          2.6170  -37.0910  -69.6200 N.3   196  GLU196     -0.1231
     95  CA         1.9460  -35.8660  -69.2130 C.3   196  GLU196      0.1699
     96  C          2.8820  -34.6740  -69.0610 C.2   196  GLU196      0.2592
     97  O          4.0630  -34.8390  -68.7430 O.2   196  GLU196     -0.2718
     98  CB         1.1380  -36.0860  -67.9340 C.3   196  GLU196      0.0402
     99  CG         1.8870  -36.5960  -66.7380 C.3   196  GLU196      0.1161
    100  CD         0.9650  -36.6790  -65.5420 C.2   196  GLU196      0.3649
    101  OE1        0.3660  -35.6470  -65.1820 O.co2 196  GLU196     -0.2457
    102  OE2        0.8250  -37.7710  -64.9660 O.co2 196  GLU196     -0.2457
    103  N          2.3400  -33.4780  -69.3030 N.am  197  GLU197     -0.1979
    104  CA         3.1070  -32.2360  -69.2370 C.3   197  GLU197      0.1602
    105  C          4.2990  -32.3620  -70.1630 C.2   197  GLU197      0.2287
    106  O          5.4450  -32.3460  -69.7210 O.2   197  GLU197     -0.2864
    107  CB         3.5890  -31.9630  -67.8160 C.3   197  GLU197      0.0415
    108  CG         2.4840  -32.0030  -66.7890 C.3   197  GLU197      0.1163
    109  CD         2.9220  -31.4220  -65.4680 C.2   197  GLU197      0.3649
    110  OE1        4.1210  -31.5610  -65.1440 O.co2 197  GLU197     -0.2457
    111  OE2        2.0680  -30.8390  -64.7570 O.co2 197  GLU197     -0.2457
    112  N          7.0370  -36.4240  -68.9210 N.3   212  ARG212     -0.1245
    113  CA         7.3250  -36.9690  -67.5950 C.3   212  ARG212      0.1563
    114  C          6.4730  -38.1690  -67.1830 C.2   212  ARG212      0.2260
    115  O          5.2750  -38.2170  -67.4580 O.2   212  ARG212     -0.2867
    116  CB         7.1590  -35.8780  -66.5310 C.3   212  ARG212      0.0307
    117  CG         5.8080  -35.8970  -65.8020 C.3   212  ARG212      0.0489
    118  CD         5.7960  -34.9030  -64.6440 C.3   212  ARG212      0.2205
    119  NE         4.7270  -35.1650  -63.6810 N.pl3 212  ARG212     -0.0865
    120  CZ         4.5020  -34.4290  -62.5940 C.cat 212  ARG212      0.5346
    121  NH1        3.5110  -34.7420  -61.7750 N.pl3 212  ARG212      0.1354
    122  NH2        5.2630  -33.3780  -62.3250 N.pl3 212  ARG212      0.1354
    123  N          4.9480  -39.7990  -64.1570 N.3   214  ASN214     -0.1240
    124  CA         4.5980  -39.5480  -62.7690 C.3   214  ASN214      0.1653
    125  C          3.9450  -40.8150  -62.2130 C.2   214  ASN214      0.2266
    126  O          3.1600  -40.7800  -61.2580 O.2   214  ASN214     -0.2867
    127  CB         3.6310  -38.3610  -62.6800 C.3   214  ASN214      0.1155
    128  CG         3.3630  -37.9320  -61.2510 C.2   214  ASN214      0.2627
    129  OD1        2.4830  -37.1150  -60.9880 O.2   214  ASN214     -0.2716
    130  ND2        4.1290  -38.4810  -60.3200 N.am  214  ASN214     -0.0877
    131  N          7.1240  -40.7290  -58.6120 N.3   265  TYR265     -0.1241
    132  CA         6.6430  -39.3720  -58.8090 C.3   265  TYR265      0.1605
    133  C          7.3720  -38.7350  -59.9990 C.2   265  TYR265      0.2264
    134  O          7.8910  -39.4330  -60.8970 O.2   265  TYR265     -0.2867
    135  CB         6.8880  -38.5570  -57.5390 C.3   265  TYR265      0.0534
    136  CG         6.2280  -37.1870  -57.4800 C.ar  265  TYR265     -0.0201
    137  CD1        6.6310  -36.2490  -56.5250 C.ar  265  TYR265     -0.0009
    138  CD2        5.1760  -36.8410  -58.3260 C.ar  265  TYR265     -0.0009
    139  CE1        6.0020  -34.9990  -56.4050 C.ar  265  TYR265      0.0417
    140  CE2        4.5350  -35.5880  -58.2160 C.ar  265  TYR265      0.0417
    141  CZ         4.9570  -34.6740  -57.2480 C.ar  265  TYR265      0.1957
    142  OH         4.3360  -33.4500  -57.0990 O.3   265  TYR265     -0.2866
    143  N         12.9160  -30.3550  -55.6080 N.3   289  ARG289     -0.1245
    144  CA        13.0260  -29.6130  -56.8590 C.3   289  ARG289      0.1563
    145  C         13.9010  -28.3820  -56.6260 C.2   289  ARG289      0.2260
    146  O         13.4100  -27.2550  -56.5470 O.2   289  ARG289     -0.2867
    147  CB        11.6510  -29.1640  -57.3270 C.3   289  ARG289      0.0307
    148  CG        10.7110  -30.2860  -57.6220 C.3   289  ARG289      0.0489
    149  CD         9.3710  -29.7200  -58.0150 C.3   289  ARG289      0.2205
    150  NE         8.3970  -30.7570  -58.3340 N.pl3 289  ARG289     -0.0865
    151  CZ         7.0980  -30.5270  -58.4670 C.cat 289  ARG289      0.5346
    152  NH1        6.2700  -31.5170  -58.7590 N.pl3 289  ARG289      0.1354
    153  NH2        6.6280  -29.3010  -58.2960 N.pl3 289  ARG289      0.1354
    154  N          9.2160  -26.2960  -62.4240 N.3   323  TYR323     -0.1241
    155  CA         8.9080  -26.7110  -63.7760 C.3   323  TYR323      0.1605
    156  C          9.9220  -26.1880  -64.7640 C.2   323  TYR323      0.2264
    157  O         10.3080  -25.0250  -64.7370 O.2   323  TYR323     -0.2867
    158  CB         7.5090  -26.2600  -64.1700 C.3   323  TYR323      0.0534
    159  CG         6.4320  -27.2400  -63.7660 C.ar  323  TYR323     -0.0201
    160  CD1        6.2650  -27.6180  -62.4390 C.ar  323  TYR323     -0.0009
    161  CD2        5.5850  -27.7960  -64.7200 C.ar  323  TYR323     -0.0009
    162  CE1        5.2780  -28.5330  -62.0720 C.ar  323  TYR323      0.0417
    163  CE2        4.5960  -28.7100  -64.3660 C.ar  323  TYR323      0.0417
    164  CZ         4.4450  -29.0790  -63.0420 C.ar  323  TYR323      0.1957
    165  OH         3.4710  -29.9990  -62.6950 O.3   323  TYR323     -0.2866
@<TRIPOS>BOND
     1    71    70    2
     2    79    80    1
     3   105   106    2
     4   105   104    1
     5    70    69    1
     6    81    80    1
     7    81    82    2
     8    94    95    1
     9   103   104    1
    10   103    96   am
    11    80    83    1
    12   104   107    1
    13    95    96    1
    14    95    98    1
    15    96    97    2
    16   112   113    1
    17    68    69    1
    18    57    56    2
    19    69    72    1
    20    56    55    1
    21    83    84    1
    22    98    99    1
    23    59    58    1
    24   107   108    1
    25   113   114    1
    26   113   116    1
    27    86    85   ar
    28    84    85    1
    29   115   114    2
    30    72    73    1
    31    73    74    1
    32    55    58    1
    33    55    54    1
    34    85    87   ar
    35   108   109    1
    36    99   100    1
    37    78    76    1
    38   116   117    1
    39    15    14    2
    40    63    62    2
    41    54    42   am
    42    62    61    1
    43    76    77    1
    44    76    75    2
    45   117   118    1
    46    74    75    1
    47   100   101   ar
    48   100   102   ar
    49    40    41    1
    50    14    13    1
    51   109   110   ar
    52   109   111   ar
    53    53    52   ar
    54    53    51   ar
    55    52    50   ar
    56    42    41    1
    57    42    43    2
    58    61    60    1
    59    61    64    1
    60    51    49   ar
    61   156   157    2
    62   156   155    1
    63    50    47   ar
    64   161   163   ar
    65   161   159   ar
    66   118   119    1
    67    41    44    1
    68    16    13    1
    69    16    17    1
    70   163   164   ar
    71    13    12    1
    72    49    47   ar
    73    49    48   ar
    74    47    45   ar
    75   158   155    1
    76   158   159    1
    77   123   124    1
    78    66    64    1
    79    64    65    1
    80   155   154    1
    81   159   160   ar
    82   119   120    2
    83    48    46   ar
    84    45    44    1
    85    45    46   ar
    86     4     3    2
    87    20    18   ar
    88    17    18    1
    89   164   165    1
    90   164   162   ar
    91    12     3   am
    92   124   127    1
    93   124   125    1
    94   127   128    1
    95   120   122    1
    96   120   121    1
    97     3     2    1
    98    18    19   ar
    99    65    67    1
   100   160   162   ar
   101   125   126    2
   102    88    89    1
   103    89    90    1
   104    89    92    1
   105    35    34    1
   106    35    36    1
   107    91    90    2
   108   128   129    2
   109   128   130   am
   110    34    33    1
   111     2     1    1
   112     2     5    1
   113   134   133    2
   114    92    93    1
   115    10     9    1
   116    36    37    2
   117    33    30    1
   118     5     6    1
   119    30    29    1
   120    30    31    1
   121    39    37    1
   122     8     9    2
   123     8     7    1
   124   133   132    1
   125    29    23   am
   126    37    38    1
   127     9    11    1
   128    25    26    1
   129    25    22    1
   130    31    32    2
   131     7     6    1
   132    23    22    1
   133    23    24    2
   134   132   131    1
   135   132   135    1
   136   152   151    1
   137    28    26   ar
   138    26    27   ar
   139    22    21    1
   140   151   150    2
   141   151   153    1
   142   150   149    1
   143   138   140   ar
   144   138   136   ar
   145   140   141   ar
   146   149   148    1
   147   148   147    1
   148   135   136    1
   149   136   137   ar
   150   147   144    1
   151   141   142    1
   152   141   139   ar
   153   144   145    1
   154   144   143    1
   155   145   146    2
   156   137   139   ar
