@<TRIPOS>MOLECULE
tmp/2hu2A00.pdb
 174 168 0 0 0
SMALL
GASTEIGER

@<TRIPOS>ATOM
      1  N          4.8600   48.8100   35.5180 N.3   115  TYR115     -0.1241
      2  CA         6.0060   49.3790   36.2190 C.3   115  TYR115      0.1605
      3  C          6.2450   50.8510   35.9120 C.2   115  TYR115      0.2264
      4  O          6.5890   51.6190   36.8110 O.2   115  TYR115     -0.2867
      5  CB         7.2730   48.5670   35.9300 C.3   115  TYR115      0.0534
      6  CG         7.5150   47.4400   36.9090 C.ar  115  TYR115     -0.0201
      7  CD1        8.2650   47.6480   38.0660 C.ar  115  TYR115     -0.0009
      8  CD2        6.9930   46.1660   36.6820 C.ar  115  TYR115     -0.0009
      9  CE1        8.4920   46.6150   38.9770 C.ar  115  TYR115      0.0417
     10  CE2        7.2130   45.1230   37.5880 C.ar  115  TYR115      0.0417
     11  CZ         7.9630   45.3580   38.7310 C.ar  115  TYR115      0.1957
     12  OH         8.1860   44.3390   39.6280 O.3   115  TYR115     -0.2866
     13  N          3.6900   55.6920   41.9820 N.3   143  GLY143     -0.1225
     14  CA         3.6690   54.2330   41.9190 C.3   143  GLY143      0.1811
     15  C          4.6160   53.6470   40.8880 C.2   143  GLY143      0.2280
     16  O          4.8290   52.4360   40.8630 O.2   143  GLY143     -0.2866
     17  N          7.9060   52.4210   39.4340 N.3   145  ALA145     -0.1245
     18  CA         8.9420   51.7470   40.2090 C.3   145  ALA145      0.1562
     19  C         10.1950   51.4120   39.4050 C.2   145  ALA145      0.2260
     20  O         10.1380   51.2090   38.1880 O.2   145  ALA145     -0.2867
     21  CB         8.3780   50.4930   40.8600 C.3   145  ALA145      0.0290
     22  N         16.4810   44.7320   40.5490 N.3   149  GLY149     -0.1210
     23  CA        16.4390   44.1880   41.8950 C.3   149  GLY149      0.1956
     24  C         15.0950   43.5800   42.2240 C.2   149  GLY149      0.2612
     25  O         14.9610   42.8560   43.2100 O.2   149  GLY149     -0.2717
     26  N         14.0940   43.8790   41.4010 N.am  150  GLU150     -0.1965
     27  CA        12.7580   43.3280   41.5910 C.3   150  GLU150      0.1733
     28  C         12.7120   41.8780   41.1270 C.2   150  GLU150      0.2617
     29  O         13.4960   41.4650   40.2720 O.2   150  GLU150     -0.2715
     30  CB        11.7230   44.1630   40.8500 C.3   150  GLU150      0.0429
     31  CG        11.5150   45.5500   41.4400 C.3   150  GLU150      0.1163
     32  CD        10.3770   45.5970   42.4490 C.2   150  GLU150      0.3649
     33  OE1        9.2540   45.1700   42.0960 O.co2 150  GLU150     -0.2457
     34  OE2       10.6000   46.0780   43.5850 O.co2 150  GLU150     -0.2457
     35  N         11.7990   41.1090   41.7080 N.am  151  THR151     -0.1951
     36  CA        11.6850   39.6880   41.4050 C.3   151  THR151      0.1897
     37  C         10.4660   39.4220   40.5340 C.2   151  THR151      0.2313
     38  O          9.3310   39.7110   40.9340 O.2   151  THR151     -0.2863
     39  CB        11.6110   38.8410   42.6960 C.3   151  THR151      0.1794
     40  OG1       12.7610   39.1110   43.5080 O.3   151  THR151     -0.2208
     41  CG2       11.5650   37.3560   42.3710 C.3   151  THR151      0.0378
     42  N          3.1210   28.4640   46.1910 N.3   199  GLN199     -0.1245
     43  CA         3.1530   29.4190   47.2940 C.3   199  GLN199      0.1566
     44  C          4.5320   30.0600   47.4230 C.2   199  GLN199      0.2260
     45  O          4.6460   31.2450   47.7500 O.2   199  GLN199     -0.2867
     46  CB         2.7570   28.7410   48.6050 C.3   199  GLN199      0.0367
     47  CG         2.6820   29.6940   49.7850 C.3   199  GLN199      0.0905
     48  CD         2.4940   28.9860   51.1040 C.2   199  GLN199      0.2608
     49  OE1        1.5560   28.2050   51.2760 O.2   199  GLN199     -0.2717
     50  NE2        3.3810   29.2620   52.0530 N.am  199  GLN199     -0.0878
     51  N          5.1670   33.9570   47.3320 N.3   203  PHE203     -0.1227
     52  CA         5.8170   34.5990   48.4780 C.3   203  PHE203      0.1736
     53  C          6.9840   35.5160   48.0920 C.2   203  PHE203      0.2595
     54  O          7.2280   36.5190   48.7670 O.2   203  PHE203     -0.2718
     55  CB         6.2840   33.5460   49.5010 C.3   203  PHE203      0.0547
     56  CG         6.9720   34.1330   50.7120 C.ar  203  PHE203     -0.0202
     57  CD1        6.2270   34.6800   51.7590 C.ar  203  PHE203     -0.0042
     58  CD2        8.3660   34.1530   50.8000 C.ar  203  PHE203     -0.0042
     59  CE1        6.8620   35.2370   52.8760 C.ar  203  PHE203     -0.0003
     60  CE2        9.0080   34.7090   51.9130 C.ar  203  PHE203     -0.0003
     61  CZ         8.2550   35.2490   52.9510 C.ar  203  PHE203     -0.0000
     62  N          7.6940   35.1760   47.0150 N.am  204  HIS204     -0.1975
     63  CA         8.9360   35.8710   46.6480 C.3   204  HIS204      0.1656
     64  C          8.8340   36.8960   45.5070 C.2   204  HIS204      0.2291
     65  O          9.6790   37.7880   45.3950 O.2   204  HIS204     -0.2864
     66  CB        10.0430   34.8550   46.3470 C.3   204  HIS204      0.0771
     67  CG        10.5780   34.1670   47.5650 C.ar  204  HIS204      0.0820
     68  ND1       10.3530   32.8330   47.8260 N.ar  204  HIS204     -0.2267
     69  CD2       11.3170   34.6320   48.6000 C.ar  204  HIS204      0.1154
     70  CE1       10.9330   32.5040   48.9660 C.ar  204  HIS204      0.1986
     71  NE2       11.5250   33.5770   49.4550 N.ar  204  HIS204     -0.2212
     72  N          7.6120   39.9980   43.1730 N.3   206  ASP206     -0.1239
     73  CA         6.9980   41.3290   43.1810 C.3   206  ASP206      0.1674
     74  C          6.0520   41.4840   41.9960 C.2   206  ASP206      0.2266
     75  O          5.1230   42.2890   42.0350 O.2   206  ASP206     -0.2867
     76  CB         8.0580   42.4300   43.1260 C.3   206  ASP206      0.1410
     77  CG         9.1270   42.2740   44.1870 C.2   206  ASP206      0.3668
     78  OD1        8.7880   42.0330   45.3670 O.co2 206  ASP206     -0.2456
     79  OD2       10.3190   42.4050   43.8370 O.co2 206  ASP206     -0.2456
     80  N         -4.4320   34.2510   46.2830 N.3   227  VAL227     -0.1231
     81  CA        -4.2430   35.7090   46.1780 C.3   227  VAL227      0.1692
     82  C         -3.6120   36.2760   47.4490 C.2   227  VAL227      0.2592
     83  O         -2.8100   37.2080   47.3860 O.2   227  VAL227     -0.2718
     84  CB        -5.5750   36.4670   45.8620 C.3   227  VAL227      0.0266
     85  CG1       -5.4440   37.9730   46.1240 C.3   227  VAL227      0.0020
     86  CG2       -5.9780   36.2500   44.4150 C.3   227  VAL227      0.0020
     87  N         -3.9770   35.7030   48.5940 N.am  228  LYS228     -0.1966
     88  CA        -3.4440   36.1340   49.8870 C.3   228  LYS228      0.1728
     89  C         -1.9520   35.8200   50.0350 C.2   228  LYS228      0.2616
     90  O         -1.2340   36.5210   50.7530 O.2   228  LYS228     -0.2715
     91  CB        -4.2430   35.5130   51.0410 C.3   228  LYS228      0.0311
     92  CG        -5.7190   35.9290   51.1040 C.3   228  LYS228      0.0038
     93  CD        -5.8880   37.4030   51.4780 C.3   228  LYS228      0.0206
     94  CE        -7.3360   37.8680   51.3210 C.3   228  LYS228      0.1093
     95  NZ        -8.1840   37.4860   52.4890 N.3   228  LYS228     -0.1314
     96  N         -1.4950   34.7770   49.3410 N.am  229  GLN229     -0.1963
     97  CA        -0.0930   34.3530   49.3770 C.3   229  GLN229      0.1733
     98  C          0.8210   35.2680   48.5500 C.2   229  GLN229      0.2616
     99  O          2.0480   35.2380   48.6970 O.2   229  GLN229     -0.2715
    100  CB         0.0350   32.9000   48.9130 C.3   229  GLN229      0.0408
    101  CG        -0.7830   31.9120   49.7380 C.3   229  GLN229      0.0908
    102  CD        -0.7290   30.4920   49.1970 C.2   229  GLN229      0.2608
    103  OE1       -0.5930   30.2750   47.9940 O.2   229  GLN229     -0.2717
    104  NE2       -0.8400   29.5170   50.0920 N.am  229  GLN229     -0.0878
    105  N          0.2120   36.0760   47.6850 N.am  230  MET230     -0.1963
    106  CA         0.9290   37.0770   46.9000 C.3   230  MET230      0.1736
    107  C          1.3510   38.2430   47.7830 C.2   230  MET230      0.2616
    108  O          0.6900   38.5440   48.7770 O.2   230  MET230     -0.2715
    109  CB         0.0580   37.5870   45.7530 C.3   230  MET230      0.0427
    110  CG        -0.1300   36.5860   44.6280 C.3   230  MET230      0.0599
    111  SD        -1.0670   37.2540   43.2420 S.3   230  MET230     -0.1393
    112  CE         0.0740   38.4760   42.5790 C.3   230  MET230      0.0692
    113  N          2.4460   38.9000   47.4120 N.am  231  ARG231     -0.1963
    114  CA         3.0000   39.9910   48.2110 C.3   231  ARG231      0.1729
    115  C          2.0990   41.2220   48.1860 C.2   231  ARG231      0.2616
    116  O          1.3100   41.4020   47.2580 O.2   231  ARG231     -0.2715
    117  CB         4.4130   40.3470   47.7390 C.3   231  ARG231      0.0348
    118  CG         5.3310   39.1480   47.5840 C.3   231  ARG231      0.0492
    119  CD         6.7860   39.5550   47.5460 C.3   231  ARG231      0.2205
    120  NE         7.4180   39.4160   48.8570 N.pl3 231  ARG231     -0.0865
    121  CZ         7.7200   40.4290   49.6670 C.cat 231  ARG231      0.5346
    122  NH1        7.4570   41.6810   49.3090 N.pl3 231  ARG231      0.1354
    123  NH2        8.2970   40.1880   50.8380 N.pl3 231  ARG231      0.1354
    124  N          2.2170   42.0550   49.2180 N.am  232  GLN232     -0.1963
    125  CA         1.4520   43.2940   49.3240 C.3   232  GLN232      0.1733
    126  C          1.8810   44.2800   48.2450 C.2   232  GLN232      0.2617
    127  O          3.0090   44.7770   48.2650 O.2   232  GLN232     -0.2715
    128  CB         1.6560   43.9250   50.7030 C.3   232  GLN232      0.0408
    129  CG         0.7390   45.1070   51.0090 C.3   232  GLN232      0.0908
    130  CD        -0.5320   44.6910   51.7400 C.2   232  GLN232      0.2608
    131  OE1       -1.2410   43.7690   51.3210 O.2   232  GLN232     -0.2717
    132  NE2       -0.8240   45.3780   52.8430 N.am  232  GLN232     -0.0878
    133  N          0.9770   44.5570   47.3090 N.am  233  GLY233     -0.1940
    134  CA         1.2440   45.5130   46.2380 C.3   233  GLY233      0.2014
    135  C          1.9840   44.8950   45.0670 C.2   233  GLY233      0.2639
    136  O          2.7680   45.5670   44.3880 O.2   233  GLY233     -0.2714
    137  N          1.7260   43.6100   44.8330 N.am  234  ALA234     -0.1963
    138  CA         2.3270   42.8800   43.7260 C.3   234  ALA234      0.1728
    139  C          1.5610   43.1120   42.4290 C.2   234  ALA234      0.2616
    140  O          0.3720   43.4480   42.4480 O.2   234  ALA234     -0.2715
    141  CB         2.3960   41.3940   44.0480 C.3   234  ALA234      0.0334
    142  N          2.2550   42.9460   41.3040 N.am  235  PHE235     -0.1974
    143  CA         1.6330   43.0560   39.9910 C.3   235  PHE235      0.1639
    144  C          1.2280   41.6810   39.4770 C.2   235  PHE235      0.2290
    145  O          1.8980   40.6840   39.7580 O.2   235  PHE235     -0.2864
    146  CB         2.5930   43.7000   38.9940 C.3   235  PHE235      0.0560
    147  CG         2.8710   45.1570   39.2520 C.ar  235  PHE235     -0.0200
    148  CD1        1.8320   46.0840   39.3170 C.ar  235  PHE235     -0.0042
    149  CD2        4.1800   45.6100   39.3860 C.ar  235  PHE235     -0.0042
    150  CE1        2.0950   47.4370   39.5370 C.ar  235  PHE235     -0.0003
    151  CE2        4.4540   46.9610   39.5990 C.ar  235  PHE235     -0.0003
    152  CZ         3.4090   47.8760   39.6780 C.ar  235  PHE235     -0.0000
    153  N         -4.1440   45.1840   47.7100 N.3   258  ARG258     -0.1245
    154  CA        -3.2900   44.0070   47.8870 C.3   258  ARG258      0.1563
    155  C         -2.5640   43.6320   46.5920 C.2   258  ARG258      0.2260
    156  O         -1.4360   43.1250   46.6220 O.2   258  ARG258     -0.2867
    157  CB        -4.0960   42.8260   48.4430 C.3   258  ARG258      0.0307
    158  CG        -4.4490   42.9790   49.9240 C.3   258  ARG258      0.0489
    159  CD        -5.3130   41.8420   50.4470 C.3   258  ARG258      0.2205
    160  NE        -6.7070   41.9460   50.0130 N.pl3 258  ARG258     -0.0865
    161  CZ        -7.3000   41.1080   49.1630 C.cat 258  ARG258      0.5346
    162  NH1       -6.6290   40.0830   48.6420 N.pl3 258  ARG258      0.1354
    163  NH2       -8.5740   41.2910   48.8360 N.pl3 258  ARG258      0.1354
    164  N         -1.3400   45.8090   43.3680 N.3   260  ARG260     -0.1245
    165  CA        -1.1520   47.1990   42.9380 C.3   260  ARG260      0.1563
    166  C         -1.6320   47.4690   41.5110 C.2   260  ARG260      0.2260
    167  O         -2.0270   48.5920   41.1870 O.2   260  ARG260     -0.2867
    168  CB         0.3150   47.6160   43.0900 C.3   260  ARG260      0.0307
    169  CG         0.5540   49.1240   42.9800 C.3   260  ARG260      0.0489
    170  CD         2.0140   49.4950   43.2200 C.3   260  ARG260      0.2205
    171  NE         2.4600   49.1390   44.5700 N.pl3 260  ARG260     -0.0865
    172  CZ         2.3800   49.9370   45.6330 C.cat 260  ARG260      0.5346
    173  NH1        1.8710   51.1610   45.5240 N.pl3 260  ARG260      0.1354
    174  NH2        2.8110   49.5090   46.8140 N.pl3 260  ARG260      0.1354
@<TRIPOS>BOND
     1     1     2    1
     2     3     2    1
     3     3     4    2
     4     5     2    1
     5     5     6    1
     6     8     6   ar
     7     8    10   ar
     8     6     7   ar
     9    10    11   ar
    10     7     9   ar
    11    20    19    2
    12    11     9   ar
    13    11    12    1
    14   146   147    1
    15   146   143    1
    16   147   148   ar
    17   147   149   ar
    18   148   150   ar
    19   149   151   ar
    20    19    18    1
    21    17    18    1
    22   144   145    2
    23   144   143    1
    24   150   152   ar
    25   151   152   ar
    26   143   142    1
    27    18    21    1
    28    29    28    2
    29    37    38    2
    30    37    36    1
    31    22    23    1
    32    30    31    1
    33    30    27    1
    34    16    15    2
    35    15    14    1
    36    28    27    1
    37    28    35   am
    38   167   166    2
    39   142   139   am
    40    26    27    1
    41    26    24   am
    42    36    35    1
    43    36    39    1
    44    31    32    1
    45   166   165    1
    46    23    24    1
    47    14    13    1
    48    74    75    2
    49    74    73    1
    50    33    32   ar
    51    24    25    2
    52    41    39    1
    53   139   140    2
    54   139   138    1
    55    32    34   ar
    56   112   111    1
    57    39    40    1
    58   165   168    1
    59   165   164    1
    60   169   168    1
    61   169   170    1
    62    76    73    1
    63    76    77    1
    64    72    73    1
    65   170   171    1
    66   111   110    1
    67   138   141    1
    68   138   137    1
    69    79    77   ar
    70    77    78   ar
    71   136   135    2
    72    86    84    1
    73   171   172    2
    74   110   109    1
    75   137   135   am
    76   135   134    1
    77    65    64    2
    78    64    63    1
    79   173   172    1
    80   172   174    1
    81   109   106    1
    82    84    85    1
    83    84    81    1
    84    81    80    1
    85    81    82    1
    86    42    43    1
    87   134   133    1
    88    66    63    1
    89    66    67    1
    90   155   156    2
    91   155   154    1
    92    63    62    1
    93   106   105    1
    94   106   107    1
    95    62    53   am
    96   116   115    2
    97    43    44    1
    98    43    46    1
    99   133   126   am
   100    51    52    1
   101    83    82    2
   102   113   107   am
   103   113   114    1
   104    44    45    2
   105    82    87   am
   106   119   118    1
   107   119   120    1
   108    67    68   ar
   109    67    69   ar
   110   118   117    1
   111   105    98   am
   112   153   154    1
   113   117   114    1
   114   107   108    2
   115    68    70   ar
   116   154   157    1
   117   103   102    2
   118    53    52    1
   119    53    54    2
   120   115   114    1
   121   115   124   am
   122   126   127    2
   123   126   125    1
   124   157   158    1
   125    52    55    1
   126    98    99    2
   127    98    97    1
   128    87    88    1
   129    69    71   ar
   130    46    47    1
   131   162   161    1
   132   163   161    1
   133   120   121    2
   134   100    97    1
   135   100   101    1
   136    70    71   ar
   137   161   160    2
   138   102   101    1
   139   102   104   am
   140   124   125    1
   141   122   121    1
   142   125   128    1
   143    96    97    1
   144    96    89   am
   145    55    56    1
   146   121   123    1
   147    47    48    1
   148    88    89    1
   149    88    91    1
   150   158   159    1
   151   160   159    1
   152    89    90    2
   153   128   129    1
   154    56    58   ar
   155    56    57   ar
   156    58    60   ar
   157   129   130    1
   158    91    92    1
   159    48    49    2
   160    48    50   am
   161    92    93    1
   162    94    93    1
   163    94    95    1
   164   131   130    2
   165   130   132   am
   166    57    59   ar
   167    60    61   ar
   168    59    61   ar
