@<TRIPOS>MOLECULE
tmp/2hu5B00.pdb
 121 117 0 0 0
SMALL
GASTEIGER

@<TRIPOS>ATOM
      1  N         24.7870  -11.3060   30.1910 N.3   361  GLY361     -0.1210
      2  CA        23.6340  -11.7440   30.9250 C.3   361  GLY361      0.1956
      3  C         23.9070  -13.0520   31.6100 C.2   361  GLY361      0.2612
      4  O         25.0240  -13.5460   31.6060 O.2   361  GLY361     -0.2717
      5  N         22.8720  -13.5620   32.2500 N.am  362  GLY362     -0.1956
      6  CA        22.8290  -14.9110   32.7550 C.3   362  GLY362      0.1869
      7  C         22.2900  -14.9170   34.1670 C.2   362  GLY362      0.2309
      8  O         21.0830  -15.0020   34.3610 O.2   362  GLY362     -0.2863
      9  N         19.5700   -7.9100   30.2430 N.3   438  SER438     -0.1202
     10  CA        19.1570   -8.9130   31.2100 C.3   438  SER438      0.2020
     11  C         19.9710   -8.8060   32.5100 C.2   438  SER438      0.2618
     12  O         19.9260   -7.7700   33.1510 O.2   438  SER438     -0.2717
     13  CB        19.1710  -10.2960   30.5560 C.3   438  SER438      0.2103
     14  OG        18.3920  -11.2120   31.3110 O.3   438  SER438     -0.2182
     15  N         20.7070   -9.8210   32.9330 N.am  439  TYR439     -0.1975
     16  CA        21.5540   -9.6390   34.1150 C.3   439  TYR439      0.1639
     17  C         22.5670   -8.5230   33.8830 C.2   439  TYR439      0.2290
     18  O         23.0070   -7.8870   34.8350 O.2   439  TYR439     -0.2864
     19  CB        22.2770  -10.9060   34.5300 C.3   439  TYR439      0.0560
     20  CG        22.7410  -10.8540   35.9740 C.ar  439  TYR439     -0.0198
     21  CD1       21.8710  -11.1830   37.0100 C.ar  439  TYR439     -0.0009
     22  CD2       24.0450  -10.4530   36.2980 C.ar  439  TYR439     -0.0009
     23  CE1       22.2920  -11.1540   38.3210 C.ar  439  TYR439      0.0417
     24  CE2       24.4570  -10.3860   37.5800 C.ar  439  TYR439      0.0417
     25  CZ        23.5830  -10.7380   38.6000 C.ar  439  TYR439      0.1957
     26  OH        23.9970  -10.6850   39.8870 O.3   439  TYR439     -0.2866
     27  N         16.9690   -6.5380   35.1650 N.3   464  VAL464     -0.1245
     28  CA        16.4450   -6.8080   36.4850 C.3   464  VAL464      0.1561
     29  C         16.5390   -5.4700   37.2140 C.2   464  VAL464      0.2260
     30  O         17.5470   -4.7920   37.1520 O.2   464  VAL464     -0.2867
     31  CB        17.2730   -7.8520   37.2590 C.3   464  VAL464      0.0252
     32  CG1       16.8390   -7.8940   38.7140 C.3   464  VAL464      0.0019
     33  CG2       17.1900   -9.2280   36.6080 C.3   464  VAL464      0.0019
     34  N         14.4860   -7.5220   42.5400 N.3   467  TRP467     -0.1241
     35  CA        14.3060   -8.9340   42.8160 C.3   467  TRP467      0.1605
     36  C         12.9580   -9.2290   43.4740 C.2   467  TRP467      0.2264
     37  O         12.3830  -10.2730   43.2400 O.2   467  TRP467     -0.2867
     38  CB        15.4210   -9.4410   43.7150 C.3   467  TRP467      0.0550
     39  CG        16.7490   -9.3550   43.1030 C.ar  467  TRP467      0.0003
     40  CD1       17.7680   -8.5880   43.5140 C.ar  467  TRP467      0.0946
     41  CD2       17.2090  -10.0650   41.9600 C.ar  467  TRP467      0.0152
     42  NE1       18.8500   -8.7560   42.6930 N.ar  467  TRP467     -0.2442
     43  CE2       18.5340   -9.6690   41.7280 C.ar  467  TRP467      0.0810
     44  CE3       16.6310  -11.0030   41.0960 C.ar  467  TRP467      0.0012
     45  CZ2       19.2990  -10.1730   40.6760 C.ar  467  TRP467      0.0191
     46  CZ3       17.3910  -11.5110   40.0520 C.ar  467  TRP467      0.0001
     47  CH2       18.7100  -11.0950   39.8540 C.ar  467  TRP467      0.0015
     48  N          9.8860   -8.6420   40.9710 N.3   470  MET470     -0.1245
     49  CA        10.0720   -9.6120   39.9160 C.3   470  MET470      0.1570
     50  C          9.6570  -10.9830   40.4210 C.2   470  MET470      0.2261
     51  O          8.9980  -11.7340   39.7060 O.2   470  MET470     -0.2867
     52  CB        11.5180   -9.6370   39.4560 C.3   470  MET470      0.0387
     53  CG        11.7820  -10.6270   38.3300 C.3   470  MET470      0.0595
     54  SD        13.4470  -10.5020   37.6680 S.3   470  MET470     -0.1393
     55  CE        14.2880  -10.1870   39.1080 C.3   470  MET470      0.0692
     56  N         11.5440  -19.1280   37.5540 N.3   478  PHE478     -0.1241
     57  CA        12.2230  -17.8860   37.8810 C.3   478  PHE478      0.1605
     58  C         12.1650  -17.5620   39.3530 C.2   478  PHE478      0.2264
     59  O         13.1180  -17.0370   39.8910 O.2   478  PHE478     -0.2867
     60  CB        11.7120  -16.7420   36.9970 C.3   478  PHE478      0.0534
     61  CG        12.3310  -16.7590   35.6500 C.ar  478  PHE478     -0.0203
     62  CD1       11.6950  -17.3740   34.5860 C.ar  478  PHE478     -0.0042
     63  CD2       13.5890  -16.2170   35.4610 C.ar  478  PHE478     -0.0042
     64  CE1       12.2890  -17.4270   33.3620 C.ar  478  PHE478     -0.0003
     65  CE2       14.1950  -16.2690   34.2320 C.ar  478  PHE478     -0.0003
     66  CZ        13.5370  -16.8660   33.1780 C.ar  478  PHE478     -0.0000
     67  N         14.9180  -19.5500   40.6560 N.3   481  PHE481     -0.1227
     68  CA        16.2020  -19.0400   40.2280 C.3   481  PHE481      0.1736
     69  C         16.5670  -17.7840   40.9930 C.2   481  PHE481      0.2595
     70  O         17.7100  -17.6120   41.3790 O.2   481  PHE481     -0.2718
     71  CB        16.2140  -18.7810   38.7410 C.3   481  PHE481      0.0547
     72  CG        17.5920  -18.7330   38.1520 C.ar  481  PHE481     -0.0202
     73  CD1       18.4040  -19.8760   38.1570 C.ar  481  PHE481     -0.0042
     74  CD2       18.0680  -17.5550   37.5710 C.ar  481  PHE481     -0.0042
     75  CE1       19.6820  -19.8480   37.6090 C.ar  481  PHE481     -0.0003
     76  CE2       19.3440  -17.5070   37.0150 C.ar  481  PHE481     -0.0003
     77  CZ        20.1600  -18.6590   37.0360 C.ar  481  PHE481     -0.0000
     78  N         15.5860  -16.9300   41.2520 N.am  482  ILE482     -0.1980
     79  CA        15.8040  -15.7890   42.1460 C.3   482  ILE482      0.1595
     80  C         16.1600  -16.2590   43.5590 C.2   482  ILE482      0.2287
     81  O         17.0150  -15.6740   44.1980 O.2   482  ILE482     -0.2864
     82  CB        14.5650  -14.8730   42.1770 C.3   482  ILE482      0.0276
     83  CG1       14.3790  -14.2260   40.8020 C.3   482  ILE482      0.0022
     84  CG2       14.7080  -13.7930   43.2580 C.3   482  ILE482      0.0022
     85  CD1       13.0840  -13.5970   40.6070 C.3   482  ILE482      0.0001
     86  N         19.9050  -17.2920   43.3600 N.3   485  LEU485     -0.1245
     87  CA        20.8220  -16.1740   43.1990 C.3   485  LEU485      0.1561
     88  C         20.9170  -15.3410   44.4740 C.2   485  LEU485      0.2260
     89  O         21.9870  -14.8820   44.8240 O.2   485  LEU485     -0.2867
     90  CB        20.4080  -15.2580   42.0450 C.3   485  LEU485      0.0270
     91  CG        20.4900  -15.7350   40.5790 C.3   485  LEU485      0.0019
     92  CD1       20.1910  -14.5700   39.6380 C.3   485  LEU485      0.0001
     93  CD2       21.8420  -16.3670   40.2070 C.3   485  LEU485      0.0001
     94  N         10.5140  -12.7310   31.8570 N.3   519  ARG519     -0.1231
     95  CA        11.6980  -12.9930   32.6710 C.3   519  ARG519      0.1694
     96  C         12.0190  -11.7880   33.5560 C.2   519  ARG519      0.2592
     97  O         12.0800  -11.8970   34.7750 O.2   519  ARG519     -0.2718
     98  CB        12.9140  -13.2630   31.7900 C.3   519  ARG519      0.0321
     99  CG        12.7290  -14.3680   30.7920 C.3   519  ARG519      0.0489
    100  CD        14.0530  -14.9800   30.3100 C.3   519  ARG519      0.2205
    101  NE        13.9310  -15.5270   28.9640 N.pl3 519  ARG519     -0.0865
    102  CZ        14.9460  -16.0290   28.2590 C.cat 519  ARG519      0.5346
    103  NH1       16.1630  -16.1070   28.7840 N.pl3 519  ARG519      0.1354
    104  NH2       14.7340  -16.4720   27.0310 N.pl3 519  ARG519      0.1354
    105  N         12.2760  -10.6610   32.9040 N.am  520  THR520     -0.1953
    106  CA        12.5780   -9.3930   33.5570 C.3   520  THR520      0.1897
    107  C         11.4350   -8.4790   33.1880 C.2   520  THR520      0.2313
    108  O         11.4690   -7.7950   32.1520 O.2   520  THR520     -0.2863
    109  CB        13.9160   -8.8080   33.0620 C.3   520  THR520      0.1794
    110  OG1       13.9450   -8.7580   31.6330 O.3   520  THR520     -0.2208
    111  CG2       15.0580   -9.7070   33.4300 C.3   520  THR520      0.0378
    112  N         11.6590  -11.1590   26.2420 N.3   549  HIS549     -0.1241
    113  CA        13.0770  -11.2910   26.5120 C.3   549  HIS549      0.1621
    114  C         13.8840  -11.8850   25.3650 C.2   549  HIS549      0.2264
    115  O         15.0590  -11.5840   25.2160 O.2   549  HIS549     -0.2867
    116  CB        13.2730  -12.1480   27.7660 C.3   549  HIS549      0.0745
    117  CG        14.5200  -11.8100   28.5230 C.ar  549  HIS549      0.0817
    118  ND1       14.6480  -10.6580   29.2660 N.ar  549  HIS549     -0.2268
    119  CD2       15.7050  -12.4560   28.6200 C.ar  549  HIS549      0.1154
    120  CE1       15.8550  -10.6190   29.7990 C.ar  549  HIS549      0.1986
    121  NE2       16.5130  -11.6980   29.4270 N.ar  549  HIS549     -0.2212
@<TRIPOS>BOND
     1   115   114    2
     2   114   113    1
     3   112   113    1
     4   113   116    1
     5   104   102    1
     6   116   117    1
     7   102   103    1
     8   102   101    2
     9   117   119   ar
    10   117   118   ar
    11   119   121   ar
    12   101   100    1
    13   118   120   ar
    14   121   120   ar
    15     1     2    1
    16     9    10    1
    17   100    99    1
    18    13    10    1
    19    13    14    1
    20    99    98    1
    21     2     3    1
    22    10    11    1
    23     4     3    2
    24     3     5   am
    25   110   109    1
    26    98    95    1
    27    94    95    1
    28   108   107    2
    29     5     6    1
    30    11    15   am
    31    11    12    2
    32    95    96    1
    33     6     7    1
    34   105    96   am
    35   105   106    1
    36    15    16    1
    37   109   111    1
    38   109   106    1
    39    66    64   ar
    40    66    65   ar
    41   107   106    1
    42    64    62   ar
    43    96    97    2
    44    17    16    1
    45    17    18    2
    46    16    19    1
    47     7     8    2
    48    65    63   ar
    49    19    20    1
    50    62    61   ar
    51    27    28    1
    52    63    61   ar
    53    61    60    1
    54    20    22   ar
    55    20    21   ar
    56    22    24   ar
    57    28    29    1
    58    28    31    1
    59    33    31    1
    60    60    57    1
    61    21    23   ar
    62    76    77   ar
    63    76    74   ar
    64    77    75   ar
    65    30    29    2
    66    31    32    1
    67    56    57    1
    68    74    72   ar
    69    24    25   ar
    70    75    73   ar
    71    54    53    1
    72    54    55    1
    73    57    58    1
    74    72    73   ar
    75    72    71    1
    76    23    25   ar
    77    53    52    1
    78    25    26    1
    79    71    68    1
    80    58    59    2
    81    52    49    1
    82    92    91    1
    83    51    50    2
    84    47    46   ar
    85    47    45   ar
    86    49    50    1
    87    49    48    1
    88    46    44   ar
    89    93    91    1
    90    68    67    1
    91    68    69    1
    92    91    90    1
    93    85    83    1
    94    45    43   ar
    95    83    82    1
    96    69    78   am
    97    69    70    2
    98    44    41   ar
    99    78    79    1
   100    43    41   ar
   101    43    42   ar
   102    41    39   ar
   103    90    87    1
   104    79    82    1
   105    79    80    1
   106    82    84    1
   107    34    35    1
   108    42    40   ar
   109    35    36    1
   110    35    38    1
   111    39    40   ar
   112    39    38    1
   113    87    86    1
   114    87    88    1
   115    37    36    2
   116    80    81    2
   117    88    89    2
