@<TRIPOS>MOLECULE
tmp/2hu6A00.pdb
 161 160 0 0 0
SMALL
GASTEIGER

@<TRIPOS>ATOM
      1  N         -3.3830  -11.2810    3.4730 N.3    74  GLY74      -0.1210
      2  CA        -3.1570  -10.1130    2.6190 C.3    74  GLY74       0.1956
      3  C         -2.6140   -8.9340    3.4020 C.2    74  GLY74       0.2612
      4  O         -1.5840   -9.0500    4.0680 O.2    74  GLY74      -0.2717
      5  N         -3.2990   -7.7960    3.3050 N.am   75  ILE75      -0.1965
      6  CA        -2.9120   -6.5960    4.0610 C.3    75  ILE75       0.1727
      7  C         -3.1240   -6.8520    5.5510 C.2    75  ILE75       0.2616
      8  O         -4.2420   -7.1610    5.9730 O.2    75  ILE75      -0.2715
      9  CB        -3.7350   -5.3450    3.6580 C.3    75  ILE75       0.0290
     10  CG1       -3.5730   -5.0270    2.1680 C.3    75  ILE75       0.0022
     11  CG2       -3.3250   -4.1360    4.5100 C.3    75  ILE75       0.0023
     12  CD1       -4.5180   -3.9390    1.6630 C.3    75  ILE75       0.0001
     13  N         -2.0660   -6.7120    6.3440 N.am   76  LEU76      -0.1963
     14  CA        -2.1370   -6.9470    7.7810 C.3    76  LEU76       0.1728
     15  C         -2.4080   -5.6600    8.5480 C.2    76  LEU76       0.2616
     16  O         -3.0480   -5.6700    9.6040 O.2    76  LEU76      -0.2715
     17  CB        -0.8350   -7.5840    8.2700 C.3    76  LEU76       0.0311
     18  CG        -0.4110   -8.8630    7.5440 C.3    76  LEU76       0.0022
     19  CD1        0.9360   -9.3360    8.0600 C.3    76  LEU76       0.0001
     20  CD2       -1.4560   -9.9710    7.6750 C.3    76  LEU76       0.0001
     21  N         -1.8900   -4.5560    8.0150 N.am   77  ALA77      -0.1977
     22  CA        -1.9350   -3.2650    8.6670 C.3    77  ALA77       0.1597
     23  C         -1.4670   -2.2240    7.6700 C.2    77  ALA77       0.2287
     24  O         -0.8750   -2.5660    6.6380 O.2    77  ALA77      -0.2864
     25  CB        -1.0310   -3.2570    9.9070 C.3    77  ALA77       0.0319
     26  N          5.9250   -7.2900   15.9250 N.3   109  LEU109     -0.1231
     27  CA         6.6810   -7.2110   14.6700 C.3   109  LEU109      0.1693
     28  C          5.9710   -6.3360   13.6470 C.2   109  LEU109      0.2592
     29  O          6.5970   -5.5000   12.9760 O.2   109  LEU109     -0.2718
     30  CB         6.9120   -8.6030   14.0870 C.3   109  LEU109      0.0284
     31  CG         7.8260   -9.5360   14.8840 C.3   109  LEU109      0.0019
     32  CD1        7.8310  -10.9170   14.2600 C.3   109  LEU109      0.0001
     33  CD2        9.2460   -8.9910   14.9580 C.3   109  LEU109      0.0001
     34  N          4.6530   -6.5060   13.5540 N.am  110  THR110     -0.1953
     35  CA         3.8530   -5.7110   12.6330 C.3   110  THR110      0.1897
     36  C          3.9000   -4.2350   13.0190 C.2   110  THR110      0.2313
     37  O          4.0410   -3.3650   12.1470 O.2   110  THR110     -0.2863
     38  CB         2.4010   -6.2310   12.5570 C.3   110  THR110      0.1794
     39  OG1        2.4240   -7.6150   12.1940 O.3   110  THR110     -0.2208
     40  CG2        1.6040   -5.4870   11.5000 C.3   110  THR110      0.0378
     41  N          7.1000   -2.3980   11.9580 N.3   113  HIS113     -0.1226
     42  CA         6.9890   -2.0250   10.5550 C.3   113  HIS113      0.1752
     43  C          6.0710   -0.8070   10.3740 C.2   113  HIS113      0.2595
     44  O          6.4380    0.1650    9.7060 O.2   113  HIS113     -0.2718
     45  CB         6.4800   -3.2310    9.7510 C.3   113  HIS113      0.0759
     46  CG         6.2700   -2.9600    8.2890 C.ar  113  HIS113      0.0818
     47  ND1        7.2030   -3.2870    7.3280 N.ar  113  HIS113     -0.2268
     48  CD2        5.2250   -2.4120    7.6240 C.ar  113  HIS113      0.1154
     49  CE1        6.7430   -2.9530    6.1340 C.ar  113  HIS113      0.1986
     50  NE2        5.5470   -2.4120    6.2860 N.ar  113  HIS113     -0.2212
     51  N          4.8760   -0.8530   10.9610 N.am  114  GLU114     -0.1979
     52  CA         3.9210    0.2420   10.7890 C.3   114  GLU114      0.1602
     53  C          4.4160    1.5520   11.3740 C.2   114  GLU114      0.2287
     54  O          4.2700    2.6090   10.7490 O.2   114  GLU114     -0.2864
     55  CB         2.5480   -0.1110   11.3640 C.3   114  GLU114      0.0415
     56  CG         1.8960   -1.3240   10.6940 C.3   114  GLU114      0.1163
     57  CD         1.8600   -1.2050    9.1800 C.2   114  GLU114      0.3649
     58  OE1        2.0740   -2.2290    8.4990 O.co2 114  GLU114     -0.2457
     59  OE2        1.6370   -0.0840    8.6740 O.co2 114  GLU114     -0.2457
     60  N          9.0110    1.4140    2.0780 N.3   123  HIS123     -0.1241
     61  CA         9.4230    0.0210    2.0180 C.3   123  HIS123      0.1621
     62  C         10.8360   -0.1440    1.5130 C.2   123  HIS123      0.2264
     63  O         11.2860    0.6120    0.6510 O.2   123  HIS123     -0.2867
     64  CB         8.4750   -0.7880    1.1430 C.3   123  HIS123      0.0745
     65  CG         7.1700   -1.0810    1.8040 C.ar  123  HIS123      0.0817
     66  ND1        5.9910   -1.2020    1.1040 N.ar  123  HIS123     -0.2268
     67  CD2        6.8570   -1.2630    3.1080 C.ar  123  HIS123      0.1154
     68  CE1        5.0080   -1.4590    1.9460 C.ar  123  HIS123      0.1986
     69  NE2        5.5060   -1.4970    3.1690 N.ar  123  HIS123     -0.2212
     70  N         15.3650   -8.0040    1.9450 N.3   127  PRO127     -0.2102
     71  CA        14.5770   -9.0060    2.6560 C.3   127  PRO127      0.1504
     72  C         14.8780   -9.1040    4.1580 C.2   127  PRO127      0.2576
     73  O         14.0740   -9.6640    4.8940 O.2   127  PRO127     -0.2718
     74  CB        14.9480  -10.3190    1.9440 C.3   127  PRO127      0.0282
     75  CG        16.2620  -10.0420    1.2960 C.3   127  PRO127      0.0208
     76  CD        16.1530   -8.6170    0.8590 C.3   127  PRO127      0.0893
     77  N         16.0140   -8.5570    4.5920 N.am  128  LYS128     -0.1966
     78  CA        16.4130   -8.5910    6.0040 C.3   128  LYS128      0.1728
     79  C         15.8440   -7.4270    6.8170 C.2   128  LYS128      0.2616
     80  O         15.9160   -7.4310    8.0480 O.2   128  LYS128     -0.2715
     81  CB        17.9420   -8.6170    6.1400 C.3   128  LYS128      0.0311
     82  CG        18.5990   -9.8690    5.5820 C.3   128  LYS128      0.0038
     83  CD        20.1170   -9.7950    5.6890 C.3   128  LYS128      0.0206
     84  CE        20.7840  -10.7570    4.7080 C.3   128  LYS128      0.1093
     85  NZ        20.4540  -12.1920    4.9720 N.3   128  LYS128     -0.1314
     86  N         15.2790   -6.4390    6.1250 N.am  129  ALA129     -0.1963
     87  CA        14.7970   -5.2180    6.7690 C.3   129  ALA129      0.1728
     88  C         13.3920   -5.3800    7.3350 C.2   129  ALA129      0.2616
     89  O         12.5530   -6.0550    6.7390 O.2   129  ALA129     -0.2715
     90  CB        14.8320   -4.0510    5.7880 C.3   129  ALA129      0.0334
     91  N         13.1320   -4.7460    8.4780 N.am  130  VAL130     -0.1977
     92  CA        11.7760   -4.7460    9.0210 C.3   130  VAL130      0.1596
     93  C         10.8220   -3.9970    8.0860 C.2   130  VAL130      0.2287
     94  O          9.6290   -4.2960    8.0550 O.2   130  VAL130     -0.2864
     95  CB        11.6980   -4.2030   10.4770 C.3   130  VAL130      0.0276
     96  CG1       11.7210   -2.6800   10.5140 C.3   130  VAL130      0.0022
     97  CG2       10.4560   -4.7290   11.1640 C.3   130  VAL130      0.0022
     98  N         10.8980   -4.2500    4.8660 N.3   132  PHE132     -0.1228
     99  CA        10.5480   -5.1150    3.7290 C.3   132  PHE132      0.1721
    100  C          9.0320   -5.3360    3.7560 C.2   132  PHE132      0.2437
    101  O          8.4530   -5.4230    4.8360 O.2   132  PHE132     -0.2733
    102  CB        11.2850   -6.4490    3.8490 C.3   132  PHE132      0.0547
    103  CG        11.2390   -7.2970    2.6070 C.ar  132  PHE132     -0.0202
    104  CD1       11.8520   -6.8720    1.4290 C.ar  132  PHE132     -0.0042
    105  CD2       10.6090   -8.5350    2.6250 C.ar  132  PHE132     -0.0042
    106  CE1       11.8190   -7.6630    0.2850 C.ar  132  PHE132     -0.0003
    107  CE2       10.5760   -9.3310    1.4830 C.ar  132  PHE132     -0.0003
    108  CZ        11.1800   -8.8850    0.3160 C.ar  132  PHE132     -0.0000
    109  N          8.3690   -5.3640    2.5830 N.am  133  PRO133     -0.2718
    110  CA         6.9070   -5.5100    2.5790 C.3   133  PRO133      0.1535
    111  C          6.3420   -6.8130    3.1560 C.2   133  PRO133      0.2599
    112  O          5.2010   -6.8300    3.5920 O.2   133  PRO133     -0.2715
    113  CB         6.5560   -5.3900    1.0890 C.3   133  PRO133      0.0310
    114  CG         7.6800   -4.6020    0.5050 C.3   133  PRO133      0.0237
    115  CD         8.8800   -5.1500    1.2140 C.3   133  PRO133      0.0939
    116  N          7.1250   -7.8840    3.1600 N.am  134  THR134     -0.1937
    117  CA         6.5960   -9.2100    3.4840 C.3   134  THR134      0.2028
    118  C          6.7370   -9.5480    4.9620 C.2   134  THR134      0.2642
    119  O          7.8360   -9.4910    5.5140 O.2   134  THR134     -0.2714
    120  CB         7.3150  -10.2970    2.6620 C.3   134  THR134      0.1808
    121  OG1        7.3920   -9.8850    1.2930 O.3   134  THR134     -0.2208
    122  CG2        6.5790  -11.6310    2.7520 C.3   134  THR134      0.0379
    123  N          5.6230   -9.9090    5.5940 N.am  135  TYR135     -0.1959
    124  CA         5.6540  -10.4020    6.9630 C.3   135  TYR135      0.1771
    125  C          6.2570  -11.8030    7.0150 C.2   135  TYR135      0.2619
    126  O          5.8780  -12.6790    6.2410 O.2   135  TYR135     -0.2715
    127  CB         4.2450  -10.4280    7.5650 C.3   135  TYR135      0.0574
    128  CG         4.1820  -11.0760    8.9360 C.ar  135  TYR135     -0.0198
    129  CD1        4.3840  -10.3230   10.0920 C.ar  135  TYR135     -0.0009
    130  CD2        3.9270  -12.4420    9.0790 C.ar  135  TYR135     -0.0009
    131  CE1        4.3330  -10.9140   11.3540 C.ar  135  TYR135      0.0417
    132  CE2        3.8910  -13.0420   10.3340 C.ar  135  TYR135      0.0417
    133  CZ         4.0900  -12.2710   11.4650 C.ar  135  TYR135      0.1957
    134  OH         4.0470  -12.8540   12.7130 O.3   135  TYR135     -0.2866
    135  N          7.1870  -12.0050    7.9410 N.am  136  LYS136     -0.1977
    136  CA         7.6700  -13.3410    8.2790 C.3   136  LYS136      0.1596
    137  C          8.0850  -13.3180    9.7390 C.2   136  LYS136      0.2287
    138  O          8.8460  -12.4430   10.1510 O.2   136  LYS136     -0.2864
    139  CB         8.8410  -13.7590    7.3820 C.3   136  LYS136      0.0298
    140  CG         9.3760  -15.1570    7.6730 C.3   136  LYS136      0.0038
    141  CD        10.3460  -15.6320    6.6020 C.3   136  LYS136      0.0206
    142  CE        10.9980  -16.9560    6.9860 C.3   136  LYS136      0.1093
    143  NZ        10.0270  -18.0880    7.0080 N.3   136  LYS136     -0.1314
    144  N          9.9070  -13.7150   13.1270 N.3   138  VAL138     -0.1245
    145  CA        11.2440  -13.9090   13.6910 C.3   138  VAL138      0.1561
    146  C         11.1140  -13.8070   15.2120 C.2   138  VAL138      0.2260
    147  O         10.2210  -13.1210   15.7100 O.2   138  VAL138     -0.2867
    148  CB        12.2710  -12.8720   13.1490 C.3   138  VAL138      0.0252
    149  CG1       12.4620  -13.0310   11.6370 C.3   138  VAL138      0.0019
    150  CG2       11.8560  -11.4450   13.4880 C.3   138  VAL138      0.0019
    151  N         14.8060   -9.7350   18.6260 N.3   143  PHE143     -0.1241
    152  CA        14.6230   -8.9310   17.4110 C.3   143  PHE143      0.1605
    153  C         15.5870   -7.7500   17.3290 C.2   143  PHE143      0.2264
    154  O         15.8070   -7.0560   18.3220 O.2   143  PHE143     -0.2867
    155  CB        13.1810   -8.4110   17.2960 C.3   143  PHE143      0.0534
    156  CG        12.9960   -7.3950   16.1940 C.ar  143  PHE143     -0.0203
    157  CD1       12.7300   -7.8050   14.8930 C.ar  143  PHE143     -0.0042
    158  CD2       13.1350   -6.0300   16.4500 C.ar  143  PHE143     -0.0042
    159  CE1       12.5830   -6.8790   13.8680 C.ar  143  PHE143     -0.0003
    160  CE2       12.9900   -5.0910   15.4300 C.ar  143  PHE143     -0.0003
    161  CZ        12.7140   -5.5140   14.1370 C.ar  143  PHE143     -0.0000
@<TRIPOS>BOND
     1   106   108   ar
     2   106   104   ar
     3   108   107   ar
     4   114   113    1
     5   114   115    1
     6    63    62    2
     7    76    75    1
     8    76    70    1
     9   113   110    1
    10    66    65   ar
    11    66    68   ar
    12    64    65    1
    13    64    61    1
    14   115   109    1
    15   121   120    1
    16    75    74    1
    17   104   103   ar
    18   107   105   ar
    19    62    61    1
    20    12    10    1
    21    65    67   ar
    22    74    71    1
    23    70    71    1
    24    68    69   ar
    25    61    60    1
    26    10     9    1
    27   110   109    1
    28   110   111    1
    29   109   100   am
    30   103   105   ar
    31   103   102    1
    32     2     3    1
    33     2     1    1
    34    71    72    1
    35   120   122    1
    36   120   117    1
    37    67    69   ar
    38   111   116   am
    39   111   112    2
    40   116   117    1
    41     5     3   am
    42     5     6    1
    43     3     4    2
    44   117   118    1
    45     9     6    1
    46     9    11    1
    47    99   100    1
    48    99   102    1
    49    99    98    1
    50   100   101    2
    51     6     7    1
    52    72    77   am
    53    72    73    2
    54    77    78    1
    55    84    85    1
    56    84    83    1
    57   118   119    2
    58   118   123   am
    59     7     8    2
    60     7    13   am
    61    82    83    1
    62    82    81    1
    63   123   124    1
    64    90    87    1
    65    78    81    1
    66    78    79    1
    67    86    87    1
    68    86    79   am
    69    49    50   ar
    70    49    47   ar
    71   126   125    2
    72    50    48   ar
    73    13    14    1
    74   141   142    1
    75   141   140    1
    76    24    23    2
    77    89    88    2
    78    87    88    1
    79    79    80    2
    80   124   125    1
    81   124   127    1
    82   142   143    1
    83   125   135   am
    84    47    46   ar
    85    88    91   am
    86   139   140    1
    87   139   136    1
    88    18    20    1
    89    18    19    1
    90    18    17    1
    91   127   128    1
    92    48    46   ar
    93    23    22    1
    94    14    17    1
    95    14    15    1
    96   135   136    1
    97    21    15   am
    98    21    22    1
    99    94    93    2
   100    93    92    1
   101   136   137    1
   102    46    45    1
   103    91    92    1
   104    58    57   ar
   105    15    16    2
   106    22    25    1
   107    59    57   ar
   108   128   130   ar
   109   128   129   ar
   110    92    95    1
   111   130   132   ar
   112    57    56    1
   113    44    43    2
   114   137   138    2
   115    45    42    1
   116   129   131   ar
   117   132   133   ar
   118    43    42    1
   119    43    51   am
   120    95    96    1
   121    95    97    1
   122    42    41    1
   123    56    55    1
   124    54    53    2
   125    52    51    1
   126    52    55    1
   127    52    53    1
   128   131   133   ar
   129   133   134    1
   130    40    38    1
   131   149   148    1
   132    37    36    2
   133    39    38    1
   134    38    35    1
   135    35    36    1
   136    35    34    1
   137    29    28    2
   138   144   145    1
   139   148   150    1
   140   148   145    1
   141    34    28   am
   142    28    27    1
   143   145   146    1
   144   159   161   ar
   145   159   157   ar
   146    30    27    1
   147    30    31    1
   148   161   160   ar
   149    32    31    1
   150    27    26    1
   151    31    33    1
   152   157   156   ar
   153   146   147    2
   154   160   158   ar
   155   156   158   ar
   156   156   155    1
   157   155   152    1
   158   153   152    1
   159   153   154    2
   160   152   151    1
