@<TRIPOS>MOLECULE
tmp/2hu8A00.pdb
 178 172 0 0 0
SMALL
GASTEIGER

@<TRIPOS>ATOM
      1  N         11.1430   24.1170   31.8380 N.3    81  GLU81      -0.1245
      2  CA        10.7210   25.4640   31.4690 C.3    81  GLU81       0.1567
      3  C         10.6460   26.4160   32.6550 C.2    81  GLU81       0.2260
      4  O          9.8060   27.3080   32.7000 O.2    81  GLU81      -0.2867
      5  CB         9.3990   25.4310   30.7000 C.3    81  GLU81       0.0388
      6  CG         9.4670   24.5910   29.4340 C.3    81  GLU81       0.1160
      7  CD         8.2230   24.7100   28.5810 C.2    81  GLU81       0.3649
      8  OE1        8.0810   25.7290   27.8790 O.co2  81  GLU81      -0.2457
      9  OE2        7.3870   23.7870   28.6150 O.co2  81  GLU81      -0.2457
     10  N          8.5660   30.1300   34.7810 N.3   106  ARG106     -0.1231
     11  CA         8.1380   29.9820   33.3920 C.3   106  ARG106      0.1694
     12  C          7.8990   31.3600   32.7670 C.2   106  ARG106      0.2592
     13  O          6.9130   32.0230   33.0720 O.2   106  ARG106     -0.2718
     14  CB         6.8810   29.1160   33.2840 C.3   106  ARG106      0.0321
     15  CG         6.4690   28.8180   31.8520 C.3   106  ARG106      0.0489
     16  CD         5.0350   28.3270   31.7020 C.3   106  ARG106      0.2205
     17  NE         4.7770   27.1440   32.5200 N.pl3 106  ARG106     -0.0865
     18  CZ         5.1210   25.8980   32.1900 C.cat 106  ARG106      0.5346
     19  NH1        5.7240   25.6350   31.0350 N.pl3 106  ARG106      0.1354
     20  NH2        4.8440   24.9010   33.0210 N.pl3 106  ARG106      0.1354
     21  N          8.8120   31.7790   31.8970 N.am  107  ILE107     -0.1966
     22  CA         8.7050   33.0560   31.1990 C.3   107  ILE107      0.1727
     23  C          7.8010   32.8870   29.9770 C.2   107  ILE107      0.2616
     24  O          8.0990   32.0890   29.0920 O.2   107  ILE107     -0.2715
     25  CB        10.1130   33.5660   30.7830 C.3   107  ILE107      0.0290
     26  CG1       10.9990   33.8030   32.0200 C.3   107  ILE107      0.0022
     27  CG2        9.9990   34.8280   29.9610 C.3   107  ILE107      0.0023
     28  CD1       10.6790   35.0630   32.8160 C.3   107  ILE107      0.0001
     29  N          6.7060   33.6490   29.9450 N.am  108  LEU108     -0.1977
     30  CA         5.6740   33.5430   28.9040 C.3   108  LEU108      0.1596
     31  C          5.8280   34.5730   27.7930 C.2   108  LEU108      0.2287
     32  O          5.4340   34.3320   26.6540 O.2   108  LEU108     -0.2864
     33  CB         4.2780   33.7370   29.5050 C.3   108  LEU108      0.0297
     34  CG         3.8400   32.9100   30.7120 C.3   108  LEU108      0.0022
     35  CD1        2.4700   33.3900   31.1500 C.3   108  LEU108      0.0001
     36  CD2        3.8110   31.4300   30.3890 C.3   108  LEU108      0.0001
     37  N         -2.9320   32.7760   31.9020 N.3   146  PHE146     -0.1241
     38  CA        -1.9910   33.1040   30.8430 C.3   146  PHE146      0.1605
     39  C         -2.1560   34.5630   30.4170 C.2   146  PHE146      0.2264
     40  O         -3.2710   35.0460   30.2230 O.2   146  PHE146     -0.2867
     41  CB        -2.1900   32.1880   29.6310 C.3   146  PHE146      0.0534
     42  CG        -1.4570   30.8740   29.7230 C.ar  146  PHE146     -0.0203
     43  CD1       -2.1460   29.6990   29.9890 C.ar  146  PHE146     -0.0042
     44  CD2       -0.0850   30.8100   29.5290 C.ar  146  PHE146     -0.0042
     45  CE1       -1.4810   28.4840   30.0680 C.ar  146  PHE146     -0.0003
     46  CE2        0.5840   29.5990   29.6020 C.ar  146  PHE146     -0.0003
     47  CZ        -0.1170   28.4330   29.8720 C.ar  146  PHE146     -0.0000
     48  N          0.1100   37.8980   28.1710 N.3   148  PHE148     -0.1241
     49  CA         1.1890   38.1450   27.2210 C.3   148  PHE148      0.1605
     50  C          1.4030   39.6240   26.9580 C.2   148  PHE148      0.2264
     51  O          0.4820   40.3280   26.5500 O.2   148  PHE148     -0.2867
     52  CB         0.8890   37.4590   25.8990 C.3   148  PHE148      0.0534
     53  CG         0.7780   35.9740   25.9990 C.ar  148  PHE148     -0.0203
     54  CD1       -0.4600   35.3660   26.1070 C.ar  148  PHE148     -0.0042
     55  CD2        1.9070   35.1800   25.9680 C.ar  148  PHE148     -0.0042
     56  CE1       -0.5650   33.9950   26.1910 C.ar  148  PHE148     -0.0003
     57  CE2        1.8060   33.8070   26.0510 C.ar  148  PHE148     -0.0003
     58  CZ         0.5680   33.2150   26.1680 C.ar  148  PHE148     -0.0000
     59  N         -1.9710   20.4910   18.0190 N.3   361  GLY361     -0.1210
     60  CA        -2.1160   20.7290   19.4450 C.3   361  GLY361      0.1956
     61  C         -2.7800   22.0550   19.7610 C.2   361  GLY361      0.2612
     62  O         -3.3170   22.7280   18.8770 O.2   361  GLY361     -0.2717
     63  N         -2.7550   22.4140   21.0390 N.am  362  GLY362     -0.1956
     64  CA        -3.2500   23.7000   21.5000 C.3   362  GLY362      0.1869
     65  C         -4.1750   23.6070   22.7040 C.2   362  GLY362      0.2309
     66  O         -3.7150   23.6260   23.8450 O.2   362  GLY362     -0.2863
     67  N          1.0710   16.7850   22.0430 N.3   438  ALA438     -0.1231
     68  CA         0.3410   17.5120   23.0880 C.3   438  ALA438      0.1694
     69  C         -1.1800   17.2920   23.0580 C.2   438  ALA438      0.2592
     70  O         -1.6260   16.2010   23.3710 O.2   438  ALA438     -0.2718
     71  CB         0.7040   18.9860   23.0850 C.3   438  ALA438      0.0304
     72  N         -1.9810   18.3000   22.7130 N.am  439  TYR439     -0.1976
     73  CA        -3.4300   18.0870   22.6120 C.3   439  TYR439      0.1639
     74  C         -3.7270   17.1500   21.4430 C.2   439  TYR439      0.2290
     75  O         -4.7420   16.4720   21.4230 O.2   439  TYR439     -0.2864
     76  CB        -4.2260   19.4030   22.4770 C.3   439  TYR439      0.0560
     77  CG        -5.7060   19.2550   22.8240 C.ar  439  TYR439     -0.0198
     78  CD1       -6.1650   19.4540   24.1200 C.ar  439  TYR439     -0.0009
     79  CD2       -6.6370   18.8880   21.8600 C.ar  439  TYR439     -0.0009
     80  CE1       -7.5040   19.3060   24.4430 C.ar  439  TYR439      0.0417
     81  CE2       -7.9780   18.7350   22.1750 C.ar  439  TYR439      0.0417
     82  CZ        -8.4040   18.9460   23.4660 C.ar  439  TYR439      0.1957
     83  OH        -9.7340   18.7950   23.7890 O.3   439  TYR439     -0.2866
     84  N         -1.7410   14.5670   26.8230 N.3   464  VAL464     -0.1245
     85  CA        -2.6050   14.6840   27.9920 C.3   464  VAL464      0.1561
     86  C         -3.2190   13.3110   28.2550 C.2   464  VAL464      0.2260
     87  O         -3.7670   12.6760   27.3540 O.2   464  VAL464     -0.2867
     88  CB        -3.7400   15.7210   27.7810 C.3   464  VAL464      0.0252
     89  CG1       -4.7570   15.6500   28.9110 C.3   464  VAL464      0.0019
     90  CG2       -3.1700   17.1280   27.6660 C.3   464  VAL464      0.0019
     91  N         -6.6840   14.6410   33.1820 N.3   467  TRP467     -0.1241
     92  CA        -6.8970   16.0260   33.5690 C.3   467  TRP467      0.1605
     93  C         -6.6900   16.2190   35.0680 C.2   467  TRP467      0.2264
     94  O         -6.1100   17.2100   35.4900 O.2   467  TRP467     -0.2867
     95  CB        -8.3010   16.4750   33.1830 C.3   467  TRP467      0.0550
     96  CG        -8.5160   16.6400   31.7060 C.ar  467  TRP467      0.0003
     97  CD1       -9.3700   15.9240   30.9200 C.ar  467  TRP467      0.0946
     98  CD2       -7.8870   17.5940   30.8440 C.ar  467  TRP467      0.0152
     99  NE1       -9.3050   16.3670   29.6210 N.ar  467  TRP467     -0.2442
    100  CE2       -8.4030   17.3940   29.5470 C.ar  467  TRP467      0.0810
    101  CE3       -6.9340   18.6030   31.0360 C.ar  467  TRP467      0.0012
    102  CZ2       -8.0000   18.1600   28.4530 C.ar  467  TRP467      0.0191
    103  CZ3       -6.5350   19.3640   29.9460 C.ar  467  TRP467      0.0001
    104  CH2       -7.0660   19.1360   28.6730 C.ar  467  TRP467      0.0015
    105  N         -2.8480   15.8600   36.2160 N.3   470  MET470     -0.1245
    106  CA        -2.1090   16.9450   35.5690 C.3   470  MET470      0.1570
    107  C         -2.3120   18.2760   36.2960 C.2   470  MET470      0.2261
    108  O         -1.3810   19.0560   36.4430 O.2   470  MET470     -0.2867
    109  CB        -2.5310   17.0840   34.1090 C.3   470  MET470      0.0387
    110  CG        -1.7140   18.0900   33.3360 C.3   470  MET470      0.0595
    111  SD        -1.9830   18.0250   31.5600 S.3   470  MET470     -0.1393
    112  CE        -3.6880   17.6210   31.5030 C.3   470  MET470      0.0692
    113  N         -1.2330   26.8380   34.2850 N.3   478  PHE478     -0.1241
    114  CA        -1.8320   25.6540   33.6740 C.3   478  PHE478      0.1605
    115  C         -3.0380   25.1390   34.4350 C.2   478  PHE478      0.2264
    116  O         -3.9460   24.5780   33.8350 O.2   478  PHE478     -0.2867
    117  CB        -0.7910   24.5590   33.4470 C.3   478  PHE478      0.0534
    118  CG         0.0030   24.7710   32.2040 C.ar  478  PHE478     -0.0203
    119  CD1        1.2470   25.3640   32.2570 C.ar  478  PHE478     -0.0042
    120  CD2       -0.5270   24.4410   30.9710 C.ar  478  PHE478     -0.0042
    121  CE1        1.9620   25.5860   31.1050 C.ar  478  PHE478     -0.0003
    122  CE2        0.1810   24.6620   29.8200 C.ar  478  PHE478     -0.0003
    123  CZ         1.4260   25.2320   29.8840 C.ar  478  PHE478     -0.0000
    124  N         -5.7650   27.2740   32.9760 N.3   481  PHE481     -0.1227
    125  CA        -6.0780   26.9020   31.5970 C.3   481  PHE481      0.1736
    126  C         -6.8790   25.6050   31.5390 C.2   481  PHE481      0.2595
    127  O         -7.7370   25.4410   30.6720 O.2   481  PHE481     -0.2718
    128  CB        -4.7980   26.7640   30.7780 C.3   481  PHE481      0.0547
    129  CG        -5.0340   26.6780   29.2970 C.ar  481  PHE481     -0.0202
    130  CD1       -5.6290   27.7310   28.6120 C.ar  481  PHE481     -0.0042
    131  CD2       -4.6600   25.5470   28.5880 C.ar  481  PHE481     -0.0042
    132  CE1       -5.8460   27.6530   27.2420 C.ar  481  PHE481     -0.0003
    133  CE2       -4.8700   25.4670   27.2250 C.ar  481  PHE481     -0.0003
    134  CZ        -5.4670   26.5190   26.5510 C.ar  481  PHE481     -0.0000
    135  N         -6.6010   24.6990   32.4700 N.am  482  ILE482     -0.1980
    136  CA        -7.3530   23.4560   32.5890 C.3   482  ILE482      0.1595
    137  C         -8.7940   23.7200   33.0470 C.2   482  ILE482      0.2287
    138  O         -9.7270   23.0780   32.5620 O.2   482  ILE482     -0.2864
    139  CB        -6.6400   22.4980   33.5670 C.3   482  ILE482      0.0276
    140  CG1       -5.3180   22.0190   32.9620 C.3   482  ILE482      0.0022
    141  CG2       -7.5220   21.2990   33.8890 C.3   482  ILE482      0.0022
    142  CD1       -4.3280   21.5040   33.9900 C.3   482  ILE482      0.0001
    143  N        -10.8750   25.0350   29.9250 N.3   485  LEU485     -0.1245
    144  CA       -11.1730   24.0510   28.8870 C.3   485  LEU485      0.1561
    145  C        -12.2000   23.0200   29.3300 C.2   485  LEU485      0.2260
    146  O        -13.0170   22.5770   28.5260 O.2   485  LEU485     -0.2867
    147  CB        -9.8940   23.3370   28.4410 C.3   485  LEU485      0.0270
    148  CG        -8.8830   24.1800   27.6620 C.3   485  LEU485      0.0019
    149  CD1       -7.6250   23.3710   27.4280 C.3   485  LEU485      0.0001
    150  CD2       -9.4510   24.6570   26.3320 C.3   485  LEU485      0.0001
    151  N          4.3370   20.8420   31.0660 N.3   519  ARG519     -0.1231
    152  CA         2.9930   21.1360   30.5790 C.3   519  ARG519      0.1694
    153  C          2.1200   19.8980   30.6500 C.2   519  ARG519      0.2592
    154  O          1.0690   19.8910   31.2810 O.2   519  ARG519     -0.2718
    155  CB         3.0450   21.6290   29.1390 C.3   519  ARG519      0.0321
    156  CG         3.9930   22.7680   28.9100 C.3   519  ARG519      0.0489
    157  CD         3.6740   23.5550   27.6750 C.3   519  ARG519      0.2205
    158  NE         4.8420   24.2440   27.1560 N.pl3 519  ARG519     -0.0865
    159  CZ         4.8760   24.8740   25.9950 C.cat 519  ARG519      0.5346
    160  NH1        3.7970   24.9230   25.2200 N.pl3 519  ARG519      0.1354
    161  NH2        5.9920   25.4690   25.6060 N.pl3 519  ARG519      0.1354
    162  N          2.5780   18.8530   29.9760 N.am  520  THR520     -0.1953
    163  CA         1.9680   17.5280   30.0430 C.3   520  THR520      0.1897
    164  C          2.9720   16.5760   30.6770 C.2   520  THR520      0.2313
    165  O          3.8020   15.9940   29.9880 O.2   520  THR520     -0.2863
    166  CB         1.6100   17.0490   28.6440 C.3   520  THR520      0.1794
    167  OG1        2.7490   17.1800   27.7890 O.3   520  THR520     -0.2208
    168  CG2        0.5660   17.9630   28.0160 C.3   520  THR520      0.0378
    169  N          8.7820   19.9600   26.8550 N.3   549  HIS549     -0.1241
    170  CA         7.7450   20.1700   25.8430 C.3   549  HIS549      0.1621
    171  C          8.2490   20.9030   24.6030 C.2   549  HIS549      0.2264
    172  O          7.7650   20.6650   23.4900 O.2   549  HIS549     -0.2867
    173  CB         6.5820   20.9690   26.4440 C.3   549  HIS549      0.0745
    174  CG         5.2880   20.8040   25.7090 C.ar  549  HIS549      0.0817
    175  ND1        4.4900   19.6890   25.8500 N.ar  549  HIS549     -0.2268
    176  CD2        4.6460   21.6170   24.8360 C.ar  549  HIS549      0.1154
    177  CE1        3.4150   19.8210   25.0950 C.ar  549  HIS549      0.1986
    178  NE2        3.4850   20.9840   24.4710 N.ar  549  HIS549     -0.2212
@<TRIPOS>BOND
     1    59    60    1
     2    62    61    2
     3    60    61    1
     4    61    63   am
     5    63    64    1
     6    75    74    2
     7    74    73    1
     8    64    65    1
     9    79    81   ar
    10    79    77   ar
    11    67    68    1
    12    81    82   ar
    13    76    73    1
    14    76    77    1
    15    73    72    1
    16    65    66    2
    17    72    69   am
    18    77    78   ar
    19    69    68    1
    20    69    70    2
    21    71    68    1
    22    82    83    1
    23    82    80   ar
    24   172   171    2
    25    78    80   ar
    26   178   176   ar
    27   178   177   ar
    28   171   170    1
    29   176   174   ar
    30   177   175   ar
    31   160   159    1
    32   161   159    1
    33   174   175   ar
    34   174   173    1
    35   170   173    1
    36   170   169    1
    37    52    53    1
    38    52    49    1
    39    55    53   ar
    40    55    57   ar
    41   159   158    2
    42    53    54   ar
    43    57    58   ar
    44    54    56   ar
    45    58    56   ar
    46   150   148    1
    47    51    50    2
    48   134   133   ar
    49   134   132   ar
    50    32    31    2
    51    84    85    1
    52    50    49    1
    53   158   157    1
    54    49    48    1
    55   133   131   ar
    56   132   130   ar
    57    87    86    2
    58   149   148    1
    59   148   147    1
    60    90    88    1
    61   157   156    1
    62    88    85    1
    63    88    89    1
    64   167   166    1
    65    31    30    1
    66     8     7   ar
    67    85    86    1
    68   168   166    1
    69   147   144    1
    70   102   104   ar
    71   102   100   ar
    72   146   145    2
    73     7     9   ar
    74     7     6    1
    75   131   129   ar
    76   130   129   ar
    77   166   163    1
    78   104   103   ar
    79   144   145    1
    80   144   143    1
    81    30    33    1
    82    30    29    1
    83   156   155    1
    84    24    23    2
    85   155   152    1
    86   129   128    1
    87     6     5    1
    88    33    34    1
    89    44    46   ar
    90    44    42   ar
    91   100    99   ar
    92   100    98   ar
    93    46    47   ar
    94    99    97   ar
    95    41    42    1
    96    41    38    1
    97    42    43   ar
    98   122   123   ar
    99   122   120   ar
   100    47    45   ar
   101   123   121   ar
   102    29    23   am
   103   103   101   ar
   104    27    25    1
   105   162   163    1
   106   162   153   am
   107    23    22    1
   108   165   164    2
   109    43    45   ar
   110   163   164    1
   111    40    39    2
   112    36    34    1
   113    39    38    1
   114   152   153    1
   115   152   151    1
   116   153   154    2
   117   127   126    2
   118     5     2    1
   119    34    35    1
   120   128   125    1
   121    25    22    1
   122    25    26    1
   123    38    37    1
   124    98   101   ar
   125    98    96   ar
   126    97    96   ar
   127   120   118   ar
   128    19    18    1
   129   121   119   ar
   130    22    21    1
   131     2     1    1
   132     2     3    1
   133   112   111    1
   134   126   125    1
   135   126   135   am
   136   111   110    1
   137   125   124    1
   138    16    15    1
   139    16    17    1
   140    96    95    1
   141    15    14    1
   142    21    12   am
   143    26    28    1
   144    18    17    2
   145    18    20    1
   146   118   119   ar
   147   118   117    1
   148   135   136    1
   149   138   137    2
   150   136   137    1
   151   136   139    1
   152     3     4    2
   153    12    13    2
   154    12    11    1
   155   140   139    1
   156   140   142    1
   157    91    92    1
   158    95    92    1
   159    14    11    1
   160   110   109    1
   161    11    10    1
   162   117   114    1
   163   139   141    1
   164    92    93    1
   165   114   113    1
   166   114   115    1
   167   116   115    2
   168   109   106    1
   169    93    94    2
   170   106   105    1
   171   106   107    1
   172   107   108    2
