@<TRIPOS>MOLECULE
tmp/2hubA00.pdb
 89 84 0 0 0
SMALL
GASTEIGER

@<TRIPOS>ATOM
      1  N          3.4810   23.1890   13.4790 N.3    35  GLU35      -0.1245
      2  CA         4.0900   22.3510   14.5200 C.3    35  GLU35       0.1567
      3  C          4.7140   21.0970   13.9270 C.2    35  GLU35       0.2260
      4  O          5.8390   20.7610   14.2680 O.2    35  GLU35      -0.2867
      5  CB         3.0800   21.9820   15.6150 C.3    35  GLU35       0.0388
      6  CG         2.6470   23.1360   16.5090 C.3    35  GLU35       0.1160
      7  CD         3.7180   23.6460   17.4700 C.2    35  GLU35       0.3649
      8  OE1        4.7800   23.0080   17.5370 O.co2  35  GLU35      -0.2457
      9  OE2        3.4460   24.6720   18.1320 O.co2  35  GLU35      -0.2457
     10  N         14.0130   19.4130   22.2880 N.3    46  ASN46      -0.1225
     11  CA        14.0650   20.7880   22.6910 C.3    46  ASN46       0.1785
     12  C         15.4000   21.0800   23.3970 C.2    46  ASN46       0.2598
     13  O         16.0500   20.1640   23.9230 O.2    46  ASN46      -0.2718
     14  CB        12.9040   20.9930   23.6660 C.3    46  ASN46       0.1169
     15  CG        11.5490   20.7270   23.0230 C.2    46  ASN46       0.2627
     16  OD1       10.6740   20.0240   23.5390 O.2    46  ASN46      -0.2716
     17  ND2       11.3970   21.2620   21.8720 N.am   46  ASN46      -0.0877
     18  N         15.8270   22.3390   23.3780 N.am   47  THR47      -0.1939
     19  CA        17.0370   22.7440   24.0960 C.3    47  THR47       0.2028
     20  C         16.9690   22.3320   25.5750 C.2    47  THR47       0.2642
     21  O         17.9830   21.9580   26.1750 O.2    47  THR47      -0.2714
     22  CB        17.2250   24.2630   24.0080 C.3    47  THR47       0.1808
     23  OG1       17.0860   24.6580   22.6390 O.3    47  THR47      -0.2208
     24  CG2       18.5760   24.7150   24.5150 C.3    47  THR47       0.0379
     25  N         15.7720   22.3450   26.1510 N.am   48  ASP48      -0.1971
     26  CA        15.6100   21.9940   27.5600 C.3    48  ASP48       0.1709
     27  C         15.7220   20.5080   27.8610 C.2    48  ASP48       0.2293
     28  O         15.6990   20.1040   28.9940 O.2    48  ASP48      -0.2864
     29  CB        14.3140   22.5980   28.1380 C.3    48  ASP48       0.1436
     30  CG        13.0610   21.9400   27.6240 C.2    48  ASP48       0.3671
     31  OD1       13.1450   20.9130   26.9260 O.co2  48  ASP48      -0.2456
     32  OD2       11.9880   22.4950   27.9060 O.co2  48  ASP48      -0.2456
     33  N         13.6320   18.0980   26.9390 N.3    50  SER50      -0.1217
     34  CA        12.3700   17.4550   26.5980 C.3    50  SER50       0.1889
     35  C         12.2990   17.2760   25.0880 C.2    50  SER50       0.2288
     36  O         13.1780   17.7620   24.3690 O.2    50  SER50      -0.2866
     37  CB        11.1880   18.2730   27.0850 C.3    50  SER50       0.2089
     38  OG        11.0750   19.4830   26.3800 O.3    50  SER50      -0.2183
     39  N          9.2360   17.2100   21.8210 N.3    52  ASP52      -0.1239
     40  CA         7.8630   17.4090   21.3740 C.3    52  ASP52       0.1674
     41  C          7.4860   16.2950   20.3840 C.2    52  ASP52       0.2266
     42  O          8.2910   15.9260   19.4970 O.2    52  ASP52      -0.2867
     43  CB         7.7180   18.7360   20.6310 C.3    52  ASP52       0.1410
     44  CG         7.7050   19.9420   21.5390 C.2    52  ASP52       0.3668
     45  OD1        7.7540   19.7980   22.7770 O.co2  52  ASP52      -0.2456
     46  OD2        7.6630   21.0330   20.9840 O.co2  52  ASP52      -0.2456
     47  N          2.7950   18.2590   18.4590 N.3    57  GLN57      -0.1245
     48  CA         4.0520   18.5510   19.1500 C.3    57  GLN57       0.1566
     49  C          3.8620   18.6940   20.6730 C.2    57  GLN57       0.2260
     50  O          4.2220   19.7060   21.2700 O.2    57  GLN57      -0.2867
     51  CB         4.7310   19.7730   18.5260 C.3    57  GLN57       0.0367
     52  CG         5.2610   19.4890   17.1010 C.3    57  GLN57       0.0905
     53  CD         6.4250   18.5120   17.1020 C.2    57  GLN57       0.2608
     54  OE1        7.5680   18.9180   17.3330 O.2    57  GLN57      -0.2717
     55  NE2        6.1430   17.2260   16.8680 N.am   57  GLN57      -0.0878
     56  N          4.6090   17.9820   24.4820 N.3    59  ASN59      -0.1240
     57  CA         5.8850   18.0040   25.1920 C.3    59  ASN59       0.1653
     58  C          6.0060   16.9210   26.2740 C.2    59  ASN59       0.2266
     59  O          5.0550   16.7130   27.0640 O.2    59  ASN59      -0.2867
     60  CB         6.0180   19.3700   25.8870 C.3    59  ASN59       0.1155
     61  CG         7.3840   19.5880   26.4840 C.2    59  ASN59       0.2627
     62  OD1        7.5550   19.4840   27.7000 O.2    59  ASN59      -0.2716
     63  ND2        8.3730   19.8720   25.6490 N.am   59  ASN59      -0.0877
     64  N          0.0080   27.9080   24.3550 N.3   107  ALA107     -0.1231
     65  CA         0.9460   26.8230   24.6920 C.3   107  ALA107      0.1694
     66  C          1.6690   26.2710   23.4560 C.2   107  ALA107      0.2592
     67  O          2.7730   25.7260   23.5680 O.2   107  ALA107     -0.2718
     68  CB         0.1970   25.6700   25.3810 C.3   107  ALA107      0.0304
     69  N          1.0420   26.3740   22.2770 N.am  108  TRP108     -0.1962
     70  CA         1.6820   25.9630   21.0150 C.3   108  TRP108      0.1771
     71  C          2.3830   27.1800   20.4510 C.2   108  TRP108      0.2619
     72  O          1.7490   28.1200   19.9530 O.2   108  TRP108     -0.2715
     73  CB         0.6400   25.3830   20.0630 C.3   108  TRP108      0.0590
     74  CG         0.1870   24.0080   20.4450 C.ar  108  TRP108      0.0006
     75  CD1        0.8020   22.8610   20.1770 C.ar  108  TRP108      0.0946
     76  CD2       -0.9780   23.6690   21.2110 C.ar  108  TRP108      0.0152
     77  NE1        0.1070   21.8070   20.7000 N.ar  108  TRP108     -0.2442
     78  CE2       -1.0100   22.2860   21.3110 C.ar  108  TRP108      0.0810
     79  CE3       -2.0200   24.4080   21.7490 C.ar  108  TRP108      0.0012
     80  CZ2       -2.0020   21.6140   21.9710 C.ar  108  TRP108      0.0191
     81  CZ3       -2.9890   23.7470   22.4400 C.ar  108  TRP108      0.0001
     82  CH2       -3.0080   22.3630   22.5040 C.ar  108  TRP108      0.0015
     83  N          3.7010   27.1510   20.5320 N.am  109  VAL109     -0.1977
     84  CA         4.5280   28.2630   20.0860 C.3   109  VAL109      0.1596
     85  C          4.3280   28.5740   18.6000 C.2   109  VAL109      0.2287
     86  O          4.2910   29.7430   18.2070 O.2   109  VAL109     -0.2864
     87  CB         6.0270   27.9890   20.3800 C.3   109  VAL109      0.0276
     88  CG1        6.9480   29.0540   19.8080 C.3   109  VAL109      0.0022
     89  CG2        6.2420   27.9140   21.8810 C.3   109  VAL109      0.0022
@<TRIPOS>BOND
     1     1     2    1
     2     3     4    2
     3     3     2    1
     4     2     5    1
     5     5     6    1
     6     6     7    1
     7    55    53   am
     8    52    53    1
     9    52    51    1
    10    53    54    2
    11     7     8   ar
    12     7     9   ar
    13    86    85    2
    14    47    48    1
    15    51    48    1
    16    85    84    1
    17    48    49    1
    18    42    41    2
    19    88    87    1
    20    72    71    2
    21    73    74    1
    22    73    70    1
    23    84    87    1
    24    84    83    1
    25    75    74   ar
    26    75    77   ar
    27    87    89    1
    28    41    40    1
    29    74    76   ar
    30    71    83   am
    31    71    70    1
    32    43    40    1
    33    43    44    1
    34    49    50    2
    35    77    78   ar
    36    46    44   ar
    37    70    69    1
    38    76    78   ar
    39    76    79   ar
    40    78    80   ar
    41    40    39    1
    42    44    45   ar
    43    79    81   ar
    44    17    15   am
    45    80    82   ar
    46    69    66   am
    47    10    11    1
    48    81    82   ar
    49    23    22    1
    50    11    12    1
    51    11    14    1
    52    15    16    2
    53    15    14    1
    54    18    12   am
    55    18    19    1
    56    12    13    2
    57    66    67    2
    58    66    65    1
    59    22    19    1
    60    22    24    1
    61    19    20    1
    62    64    65    1
    63    36    35    2
    64    56    57    1
    65    65    68    1
    66    35    34    1
    67    57    60    1
    68    57    58    1
    69    20    25   am
    70    20    21    2
    71    63    61   am
    72    60    61    1
    73    25    26    1
    74    58    59    2
    75    38    37    1
    76    61    62    2
    77    34    33    1
    78    34    37    1
    79    31    30   ar
    80    26    27    1
    81    26    29    1
    82    30    32   ar
    83    30    29    1
    84    27    28    2
