@<TRIPOS>MOLECULE
tmp/2huoA00.pdb
 165 158 0 0 0
SMALL
GASTEIGER

@<TRIPOS>ATOM
      1  N         40.0630   27.9530   38.0320 N.3     2  ARG2       -0.1245
      2  CA        39.4080   26.6380   38.2190 C.3     2  ARG2        0.1563
      3  C         40.2830   25.7240   39.1070 C.2     2  ARG2        0.2260
      4  O         41.3190   25.1880   38.6870 O.2     2  ARG2       -0.2867
      5  CB        39.0180   25.9590   36.8960 C.3     2  ARG2        0.0307
      6  CG        40.1070   25.8160   35.8450 C.3     2  ARG2        0.0489
      7  CD        39.5610   25.0860   34.6230 C.3     2  ARG2        0.2205
      8  NE        40.4950   24.0450   34.1810 N.pl3   2  ARG2       -0.0865
      9  CZ        40.1470   22.8740   33.6380 C.cat   2  ARG2        0.5346
     10  NH1       38.8650   22.5610   33.4350 N.pl3   2  ARG2        0.1354
     11  NH2       41.0950   22.0070   33.2800 N.pl3   2  ARG2        0.1354
     12  N         41.7610   22.9680   41.4880 N.3     4  TYR4       -0.1241
     13  CA        41.8670   21.5290   41.7840 C.3     4  TYR4        0.1605
     14  C         42.8050   21.2300   42.9510 C.2     4  TYR4        0.2264
     15  O         43.2190   20.0880   43.1730 O.2     4  TYR4       -0.2867
     16  CB        42.2660   20.7430   40.5330 C.3     4  TYR4        0.0534
     17  CG        41.2330   20.8630   39.4440 C.ar    4  TYR4       -0.0201
     18  CD1       40.0070   20.2040   39.5440 C.ar    4  TYR4       -0.0009
     19  CD2       41.4610   21.6650   38.3290 C.ar    4  TYR4       -0.0009
     20  CE1       39.0520   20.3260   38.5610 C.ar    4  TYR4        0.0417
     21  CE2       40.5130   21.8010   37.3490 C.ar    4  TYR4        0.0417
     22  CZ        39.3100   21.1240   37.4600 C.ar    4  TYR4        0.1957
     23  OH        38.3580   21.2600   36.4740 O.3     4  TYR4       -0.2866
     24  N         36.3350   12.5490   38.2760 N.3    17  TYR17      -0.1241
     25  CA        37.6390   12.3460   37.6360 C.3    17  TYR17       0.1605
     26  C         38.2910   10.9770   37.8570 C.2    17  TYR17       0.2264
     27  O         38.7480   10.3780   36.8790 O.2    17  TYR17      -0.2867
     28  CB        38.5810   13.5180   37.8710 C.3    17  TYR17       0.0534
     29  CG        38.1700   14.6260   36.9470 C.ar   17  TYR17      -0.0201
     30  CD1       38.1220   14.3820   35.5810 C.ar   17  TYR17      -0.0009
     31  CD2       37.7460   15.8760   37.4160 C.ar   17  TYR17      -0.0009
     32  CE1       37.7210   15.3560   34.6990 C.ar   17  TYR17       0.0417
     33  CE2       37.3210   16.8770   36.5050 C.ar   17  TYR17       0.0417
     34  CZ        37.3130   16.5810   35.1510 C.ar   17  TYR17       0.1957
     35  OH        36.9200   17.5120   34.2250 O.3    17  TYR17      -0.2866
     36  N         26.3150   19.6640   37.5130 N.3    58  ASP58      -0.1239
     37  CA        27.5550   19.0000   36.9280 C.3    58  ASP58       0.1674
     38  C         28.3250   18.6900   38.2170 C.2    58  ASP58       0.2266
     39  O         28.7060   19.6250   38.9270 O.2    58  ASP58      -0.2867
     40  CB        28.4380   20.0050   36.2630 C.3    58  ASP58       0.1410
     41  CG        28.9970   19.5540   34.8930 C.2    58  ASP58       0.3668
     42  OD1       30.1120   18.9560   34.7960 O.co2  58  ASP58      -0.2456
     43  OD2       28.2450   19.8070   33.9570 O.co2  58  ASP58      -0.2456
     44  N         31.4950   17.4000   37.7730 N.3    60  SER60      -0.1202
     45  CA        32.8950   17.6100   37.4400 C.3    60  SER60       0.2020
     46  C         33.2950   19.0770   37.5180 C.2    60  SER60       0.2619
     47  O         34.4950   19.3840   37.4550 O.2    60  SER60      -0.2717
     48  CB        33.1160   17.2020   36.0000 C.3    60  SER60       0.2103
     49  OG        32.3840   18.1880   35.3030 O.3    60  SER60      -0.2182
     50  N         32.3020   19.9770   37.5620 N.am   61  ASP61      -0.1960
     51  CA        32.5270   21.4060   37.5830 C.3    61  ASP61       0.1825
     52  C         32.6640   21.9290   39.0240 C.2    61  ASP61       0.2464
     53  O         31.6790   21.9390   39.7630 O.2    61  ASP61      -0.2730
     54  CB        31.3360   22.1280   36.9710 C.3    61  ASP61       0.1450
     55  CG        31.7160   23.4730   36.3680 C.2    61  ASP61       0.3671
     56  OD1       32.3440   24.2800   37.0900 O.co2  61  ASP61      -0.2456
     57  OD2       31.4150   23.6850   35.1470 O.co2  61  ASP61      -0.2456
     58  N         33.8740   22.3990   39.3950 N.am   62  PRO62      -0.2727
     59  CA        34.1870   22.9450   40.7060 C.3    62  PRO62       0.1402
     60  C         33.7760   24.4240   40.8560 C.2    62  PRO62       0.2269
     61  O         33.9110   25.0240   41.9610 O.2    62  PRO62      -0.2865
     62  CB        35.7070   22.7990   40.7630 C.3    62  PRO62       0.0296
     63  CG        36.1290   23.0480   39.3530 C.3    62  PRO62       0.0237
     64  CD        35.0640   22.3980   38.5110 C.3    62  PRO62       0.0939
     65  N         23.8110   28.0570   33.0110 N.3    71  HIS71      -0.1241
     66  CA        25.1530   28.2230   32.4330 C.3    71  HIS71       0.1621
     67  C         25.1080   28.3230   30.9020 C.2    71  HIS71       0.2264
     68  O         25.9150   29.0650   30.3000 O.2    71  HIS71      -0.2867
     69  CB        26.0850   27.0750   32.9110 C.3    71  HIS71       0.0745
     70  CG        27.2530   26.7660   32.0010 C.ar   71  HIS71       0.0817
     71  ND1       28.3030   27.6410   31.7980 N.ar   71  HIS71      -0.2268
     72  CD2       27.5530   25.6590   31.2820 C.ar   71  HIS71       0.1154
     73  CE1       29.1860   27.0940   30.9830 C.ar   71  HIS71       0.1986
     74  NE2       28.7650   25.8810   30.6610 N.ar   71  HIS71      -0.2212
     75  N         26.7690   22.6830   25.8980 N.3    97  ASP97      -0.1239
     76  CA        26.6320   21.6280   26.8990 C.3    97  ASP97       0.1674
     77  C         25.3180   20.8370   26.8770 C.2    97  ASP97       0.2266
     78  O         24.9620   20.2200   27.8710 O.2    97  ASP97      -0.2867
     79  CB        26.8420   22.1970   28.3080 C.3    97  ASP97       0.1410
     80  CG        28.2950   22.4450   28.6160 C.2    97  ASP97       0.3668
     81  OD1       29.2100   21.8160   28.0060 O.co2  97  ASP97      -0.2456
     82  OD2       28.5600   23.3050   29.4560 O.co2  97  ASP97      -0.2456
     83  N         24.7460   16.9970   27.7370 N.3   100  LYS100     -0.1245
     84  CA        24.5490   16.4980   29.1190 C.3   100  LYS100      0.1561
     85  C         23.1590   15.9440   29.4100 C.2   100  LYS100      0.2260
     86  O         22.9060   15.4220   30.5080 O.2   100  LYS100     -0.2867
     87  CB        24.8630   17.5910   30.1480 C.3   100  LYS100      0.0271
     88  CG        26.3160   17.9850   30.1810 C.3   100  LYS100      0.0035
     89  CD        26.5430   19.2970   30.9280 C.3   100  LYS100      0.0206
     90  CE        27.9790   19.3370   31.4350 C.3   100  LYS100      0.1093
     91  NZ        28.3240   20.7020   31.8280 N.3   100  LYS100     -0.1314
     92  N         29.9960   14.3720   31.2670 N.3   113  VAL113     -0.1231
     93  CA        30.5700   15.6640   31.4840 C.3   113  VAL113      0.1692
     94  C         32.0640   15.5110   31.6660 C.2   113  VAL113      0.2593
     95  O         32.5620   14.4020   31.7040 O.2   113  VAL113     -0.2718
     96  CB        30.1370   16.1160   32.9060 C.3   113  VAL113      0.0266
     97  CG1       28.6280   16.0970   33.0580 C.3   113  VAL113      0.0020
     98  CG2       30.7750   15.1900   33.7800 C.3   113  VAL113      0.0020
     99  N         32.7820   16.6220   31.7870 N.am  114  GLY114     -0.1942
    100  CA        34.1410   16.6060   32.3200 C.3   114  GLY114      0.2014
    101  C         35.1620   16.8970   31.2810 C.2   114  GLY114      0.2638
    102  O         34.8510   16.8430   30.0570 O.2   114  GLY114     -0.2714
    103  N         36.3510   17.3040   31.7400 N.am  115  ASP115     -0.1971
    104  CA        37.5280   17.3970   30.8250 C.3   115  ASP115      0.1709
    105  C         37.6710   16.1160   29.9650 C.2   115  ASP115      0.2293
    106  O         37.6380   15.0180   30.5050 O.2   115  ASP115     -0.2864
    107  CB        38.8060   17.6190   31.6990 C.3   115  ASP115      0.1436
    108  CG        38.8970   19.0060   32.2890 C.2   115  ASP115      0.3671
    109  OD1       38.0200   19.8570   32.0470 O.co2 115  ASP115     -0.2456
    110  OD2       39.8590   19.2510   33.0640 O.co2 115  ASP115     -0.2456
    111  N         29.5520   14.6130   26.6780 N.3   167  HIS167     -0.1241
    112  CA        28.8210   15.7280   26.0330 C.3   167  HIS167      0.1621
    113  C         29.3480   16.3130   24.7250 C.2   167  HIS167      0.2264
    114  O         28.5190   16.5890   23.8410 O.2   167  HIS167     -0.2867
    115  CB        28.3840   16.8230   27.0250 C.3   167  HIS167      0.0745
    116  CG        29.4610   17.7930   27.4690 C.ar  167  HIS167      0.0817
    117  ND1       30.6220   17.3980   28.0970 N.ar  167  HIS167     -0.2268
    118  CD2       29.4980   19.1440   27.4420 C.ar  167  HIS167      0.1154
    119  CE1       31.3340   18.4580   28.4270 C.ar  167  HIS167      0.1986
    120  NE2       30.6670   19.5450   28.0600 N.ar  167  HIS167     -0.2212
    121  N         35.6230   21.3820   23.2350 N.3   193  HIS193     -0.1226
    122  CA        35.5570   22.4130   24.2710 C.3   193  HIS193      0.1752
    123  C         36.0050   21.9190   25.6300 C.2   193  HIS193      0.2596
    124  O         36.4750   22.6980   26.4600 O.2   193  HIS193     -0.2718
    125  CB        34.1580   23.1190   24.3350 C.3   193  HIS193      0.0759
    126  CG        33.0720   22.3520   25.0560 C.ar  193  HIS193      0.0818
    127  ND1       32.2770   21.4190   24.4150 N.ar  193  HIS193     -0.2268
    128  CD2       32.6920   22.3330   26.3930 C.ar  193  HIS193      0.1154
    129  CE1       31.4240   20.9070   25.3150 C.ar  193  HIS193      0.1986
    130  NE2       31.6860   21.4120   26.5250 N.ar  193  HIS193     -0.2212
    131  N         35.8980   20.6110   25.8380 N.am  194  SER194     -0.1952
    132  CA        36.2970   19.9950   27.1080 C.3   194  SER194      0.1924
    133  C         37.7730   19.5780   27.0540 C.2   194  SER194      0.2314
    134  O         38.2860   19.0610   28.0070 O.2   194  SER194     -0.2863
    135  CB        35.4590   18.7310   27.3290 C.3   194  SER194      0.2116
    136  OG        34.0800   19.0060   27.2350 O.3   194  SER194     -0.2180
    137  N         40.7970   20.2070   27.6450 N.3   196  TYR196     -0.1241
    138  CA        41.6650   21.1210   28.3500 C.3   196  TYR196      0.1605
    139  C         43.1490   20.7870   28.2600 C.2   196  TYR196      0.2264
    140  O         43.9440   21.6990   28.1320 O.2   196  TYR196     -0.2867
    141  CB        41.2490   21.2640   29.8170 C.3   196  TYR196      0.0534
    142  CG        40.1890   22.3100   30.0950 C.ar  196  TYR196     -0.0201
    143  CD1       38.8320   22.0430   29.8480 C.ar  196  TYR196     -0.0009
    144  CD2       40.5310   23.5580   30.6090 C.ar  196  TYR196     -0.0009
    145  CE1       37.8390   22.9950   30.1150 C.ar  196  TYR196      0.0417
    146  CE2       39.5350   24.5360   30.8920 C.ar  196  TYR196      0.0417
    147  CZ        38.1920   24.2310   30.6520 C.ar  196  TYR196      0.1957
    148  OH        37.2200   25.1760   30.9100 O.3   196  TYR196     -0.2866
    149  N         32.9520   30.1460   28.2080 N.3   226  ASP226     -0.1239
    150  CA        32.4450   28.9070   28.8670 C.3   226  ASP226      0.1674
    151  C         32.7890   28.9330   30.3650 C.2   226  ASP226      0.2266
    152  O         31.9290   28.7680   31.2250 O.2   226  ASP226     -0.2867
    153  CB        33.0590   27.6530   28.1880 C.3   226  ASP226      0.1410
    154  CG        32.4740   26.3300   28.6930 C.2   226  ASP226      0.3668
    155  OD1       31.3590   26.2930   29.3210 O.co2 226  ASP226     -0.2456
    156  OD2       33.1490   25.2930   28.4630 O.co2 226  ASP226     -0.2456
    157  N         30.5610   31.7800   34.4360 N.3   230  LYS230     -0.1245
    158  CA        30.0120   30.9590   35.5360 C.3   230  LYS230      0.1561
    159  C         29.9350   31.7650   36.8250 C.2   230  LYS230      0.2260
    160  O         30.9670   32.1650   37.3630 O.2   230  LYS230     -0.2867
    161  CB        30.8520   29.6890   35.7550 C.3   230  LYS230      0.0271
    162  CG        30.6970   28.6560   34.6720 C.3   230  LYS230      0.0035
    163  CD        31.7030   27.5050   34.8090 C.3   230  LYS230      0.0206
    164  CE        31.6540   26.6510   33.5570 C.3   230  LYS230      0.1093
    165  NZ        32.7760   25.6960   33.4360 N.3   230  LYS230     -0.1314
@<TRIPOS>BOND
     1   121   122    1
     2   114   113    2
     3   122   125    1
     4   122   123    1
     5   125   126    1
     6   127   126   ar
     7   127   129   ar
     8   113   112    1
     9   126   128   ar
    10   129   130   ar
    11   123   131   am
    12   123   124    2
    13   131   132    1
    14    75    76    1
    15   112   111    1
    16   112   115    1
    17   128   130   ar
    18    77    76    1
    19    77    78    2
    20    76    79    1
    21   115   116    1
    22   133   132    1
    23   133   134    2
    24   132   135    1
    25   136   135    1
    26   118   116   ar
    27   118   120   ar
    28   116   117   ar
    29   137   138    1
    30    83    84    1
    31    81    80   ar
    32   120   119   ar
    33   117   119   ar
    34   140   139    2
    35   153   154    1
    36   153   150    1
    37   149   150    1
    38   139   138    1
    39    79    80    1
    40   138   141    1
    41   156   154   ar
    42    80    82   ar
    43   154   155   ar
    44   150   151    1
    45    84    85    1
    46    84    87    1
    47    85    86    2
    48   141   142    1
    49   143   142   ar
    50   143   145   ar
    51   105   106    2
    52   105   104    1
    53   102   101    2
    54   142   144   ar
    55   145   147   ar
    56    87    88    1
    57    88    89    1
    58    68    67    2
    59   151   152    2
    60   144   146   ar
    61   147   146   ar
    62   147   148    1
    63    74    73   ar
    64    74    72   ar
    65   104   107    1
    66   104   103    1
    67    67    66    1
    68    89    90    1
    69    73    71   ar
    70    92    93    1
    71   101   103   am
    72   101   100    1
    73    72    70   ar
    74    90    91    1
    75    93    94    1
    76    93    96    1
    77    94    95    2
    78    94    99   am
    79   107   108    1
    80    99   100    1
    81    71    70   ar
    82    70    69    1
    83   109   108   ar
    84   108   110   ar
    85    66    69    1
    86    66    65    1
    87    96    97    1
    88    96    98    1
    89    11     9    1
    90    10     9    1
    91   165   164    1
    92   164   163    1
    93     9     8    2
    94    43    41   ar
    95     8     7    1
    96    35    34    1
    97   157   158    1
    98     7     6    1
    99   162   163    1
   100   162   161    1
   101    32    34   ar
   102    32    30   ar
   103    42    41   ar
   104    41    40    1
   105    57    55   ar
   106    34    33   ar
   107    49    48    1
   108   158   161    1
   109   158   159    1
   110    30    29   ar
   111     6     5    1
   112    48    45    1
   113    40    37    1
   114    55    54    1
   115    55    56   ar
   116    23    22    1
   117    33    31   ar
   118   159   160    2
   119    27    26    2
   120     5     2    1
   121    37    36    1
   122    37    38    1
   123    29    31   ar
   124    29    28    1
   125    54    51    1
   126    21    22   ar
   127    21    19   ar
   128    45    46    1
   129    45    44    1
   130    47    46    2
   131    22    20   ar
   132    46    50   am
   133    50    51    1
   134    51    52    1
   135    25    26    1
   136    25    28    1
   137    25    24    1
   138     1     2    1
   139    38    39    2
   140     2     3    1
   141    19    17   ar
   142    64    63    1
   143    64    58    1
   144    20    18   ar
   145     4     3    2
   146    52    58   am
   147    52    53    2
   148    63    62    1
   149    58    59    1
   150    17    18   ar
   151    17    16    1
   152    16    13    1
   153    59    62    1
   154    59    60    1
   155    60    61    2
   156    12    13    1
   157    13    14    1
   158    14    15    2
