@<TRIPOS>MOLECULE
tmp/2huwA00.pdb
 152 148 0 0 0
SMALL
GASTEIGER

@<TRIPOS>ATOM
      1  N          4.5230   66.3090    6.4170 N.3    13  ARG13      -0.1245
      2  CA         5.4370   65.4100    5.7190 C.3    13  ARG13       0.1563
      3  C          5.0760   65.2930    4.2370 C.2    13  ARG13       0.2260
      4  O          5.9490   65.3820    3.3720 O.2    13  ARG13      -0.2867
      5  CB         5.3850   64.0360    6.3830 C.3    13  ARG13       0.0307
      6  CG         6.0460   62.8930    5.6230 C.3    13  ARG13       0.0489
      7  CD         5.9840   61.6250    6.4770 C.3    13  ARG13       0.2205
      8  NE         6.3590   60.4140    5.7510 N.pl3  13  ARG13      -0.0865
      9  CZ         7.3230   59.5750    6.1250 C.cat  13  ARG13       0.5346
     10  NH1        8.0290   59.8080    7.2240 N.pl3  13  ARG13       0.1354
     11  NH2        7.5700   58.4880    5.4030 N.pl3  13  ARG13       0.1354
     12  N         12.1810   70.0260    8.5450 N.3    32  ARG32      -0.1245
     13  CA        10.8420   70.3690    8.9890 C.3    32  ARG32       0.1563
     14  C         10.6720   69.8640   10.4020 C.2    32  ARG32       0.2260
     15  O         11.3650   68.9410   10.8300 O.2    32  ARG32      -0.2867
     16  CB         9.7850   69.7220    8.0900 C.3    32  ARG32       0.0307
     17  CG         9.8830   68.2060    8.0240 C.3    32  ARG32       0.0489
     18  CD         8.9570   67.6250    6.9560 C.3    32  ARG32       0.2205
     19  NE         9.2630   66.2180    6.7180 N.pl3  32  ARG32      -0.0865
     20  CZ         8.8860   65.2150    7.5040 C.cat  32  ARG32       0.5346
     21  NH1        8.1600   65.4440    8.5910 N.pl3  32  ARG32       0.1354
     22  NH2        9.2850   63.9820    7.2280 N.pl3  32  ARG32       0.1354
     23  N          9.2050   67.6780   12.9630 N.3    34  SER34      -0.1202
     24  CA         8.6210   66.3440   12.8890 C.3    34  SER34       0.2020
     25  C          7.1280   66.2570   13.1400 C.2    34  SER34       0.2619
     26  O          6.5930   66.9440   14.0050 O.2    34  SER34      -0.2717
     27  CB         9.3500   65.4120   13.8610 C.3    34  SER34       0.2103
     28  OG         8.8300   64.0950   13.8020 O.3    34  SER34      -0.2182
     29  N          6.4460   65.4030   12.3840 N.am   35  GLU35      -0.1965
     30  CA         5.0160   65.2630   12.6000 C.3    35  GLU35       0.1733
     31  C          4.7320   64.0320   13.4560 C.2    35  GLU35       0.2617
     32  O          3.7410   63.9990   14.1880 O.2    35  GLU35      -0.2715
     33  CB         4.2510   65.2150   11.2650 C.3    35  GLU35       0.0429
     34  CG         4.4150   63.9650   10.4370 C.3    35  GLU35       0.1163
     35  CD         3.5610   63.9900    9.1700 C.2    35  GLU35       0.3649
     36  OE1        3.4260   62.9280    8.5340 O.co2  35  GLU35      -0.2457
     37  OE2        3.0320   65.0640    8.8010 O.co2  35  GLU35      -0.2457
     38  N          5.6130   63.0330   13.3900 N.am   36  SER36      -0.1950
     39  CA         5.4390   61.8230   14.1910 C.3    36  SER36       0.1924
     40  C          6.1800   61.9570   15.5180 C.2    36  SER36       0.2314
     41  O          5.9280   61.2030   16.4600 O.2    36  SER36      -0.2863
     42  CB         5.9420   60.5820   13.4400 C.3    36  SER36       0.2116
     43  OG         7.3550   60.5620   13.3250 O.3    36  SER36      -0.2180
     44  N         12.8420   66.5850   11.2610 N.3    42  SER42      -0.1217
     45  CA        12.9730   65.5470   10.2510 C.3    42  SER42       0.1889
     46  C         13.6310   66.1670    9.0260 C.2    42  SER42       0.2288
     47  O         13.5260   67.3730    8.7980 O.2    42  SER42      -0.2866
     48  CB        11.6000   64.9940    9.8640 C.3    42  SER42       0.2089
     49  OG        10.9920   64.3390   10.9620 O.3    42  SER42      -0.2183
     50  N         12.9200   60.9580    0.2550 N.3    52  GLN52      -0.1231
     51  CA        13.2690   60.1540    1.4160 C.3    52  GLN52       0.1698
     52  C         13.2010   60.9740    2.6910 C.2    52  GLN52       0.2592
     53  O         13.4570   62.1780    2.6740 O.2    52  GLN52      -0.2718
     54  CB        14.6660   59.5720    1.2310 C.3    52  GLN52       0.0381
     55  CG        14.7370   58.5330    0.1150 C.3    52  GLN52       0.0905
     56  CD        16.1470   58.0310   -0.1340 C.2    52  GLN52       0.2608
     57  OE1       16.9420   57.8930    0.7990 O.2    52  GLN52      -0.2717
     58  NE2       16.4600   57.7340   -1.3950 N.am   52  GLN52      -0.0878
     59  N         12.8570   60.3150    3.7930 N.am   53  HIS53      -0.1962
     60  CA        12.7410   60.9970    5.0760 C.3    53  HIS53       0.1787
     61  C         13.6930   60.4100    6.1060 C.2    53  HIS53       0.2620
     62  O         13.8640   59.1900    6.1770 O.2    53  HIS53      -0.2715
     63  CB        11.3020   60.8970    5.5940 C.3    53  HIS53       0.0785
     64  CG        10.2840   61.4800    4.6650 C.ar   53  HIS53       0.0821
     65  ND1       10.1610   62.8360    4.4490 N.ar   53  HIS53      -0.2267
     66  CD2        9.3560   60.8870    3.8770 C.ar   53  HIS53       0.1154
     67  CE1        9.2010   63.0530    3.5670 C.ar   53  HIS53       0.1986
     68  NE2        8.6970   61.8870    3.2040 N.ar   53  HIS53      -0.2212
     69  N         14.3110   61.2850    6.8960 N.am   54  PHE54      -0.1960
     70  CA        15.2460   60.8610    7.9380 C.3    54  PHE54       0.1771
     71  C         14.8660   61.5160    9.2600 C.2    54  PHE54       0.2619
     72  O         14.4690   62.6830    9.2910 O.2    54  PHE54      -0.2715
     73  CB        16.6870   61.2840    7.6060 C.3    54  PHE54       0.0574
     74  CG        17.1880   60.7910    6.2750 C.ar   54  PHE54      -0.0200
     75  CD1       16.7080   61.3340    5.0870 C.ar   54  PHE54      -0.0042
     76  CD2       18.1580   59.7960    6.2110 C.ar   54  PHE54      -0.0042
     77  CE1       17.1880   60.8930    3.8520 C.ar   54  PHE54      -0.0003
     78  CE2       18.6470   59.3470    4.9910 C.ar   54  PHE54      -0.0003
     79  CZ        18.1650   59.8940    3.8070 C.ar   54  PHE54      -0.0000
     80  N         14.9830   60.7740   10.3530 N.am   55  LYS55      -0.1977
     81  CA        14.6810   61.3540   11.6550 C.3    55  LYS55       0.1596
     82  C         15.9310   62.0780   12.1390 C.2    55  LYS55       0.2287
     83  O         17.0340   61.5420   12.0450 O.2    55  LYS55      -0.2864
     84  CB        14.3340   60.2680   12.6790 C.3    55  LYS55       0.0298
     85  CG        13.1700   59.3660   12.3030 C.3    55  LYS55       0.0038
     86  CD        12.9800   58.2950   13.3650 C.3    55  LYS55       0.0206
     87  CE        11.7950   57.3960   13.0580 C.3    55  LYS55       0.1093
     88  NZ        11.5320   56.4720   14.1910 N.3    55  LYS55      -0.1314
     89  N         17.7980   62.7100   15.0300 N.3    57  LEU57      -0.1245
     90  CA        17.8480   62.1850   16.3880 C.3    57  LEU57       0.1561
     91  C         18.6080   63.0720   17.3690 C.2    57  LEU57       0.2260
     92  O         19.4140   63.9160   16.9730 O.2    57  LEU57      -0.2867
     93  CB        18.4600   60.7760   16.3570 C.3    57  LEU57       0.0270
     94  CG        17.7490   59.8080   15.4030 C.3    57  LEU57       0.0019
     95  CD1       18.5850   58.5480   15.1820 C.3    57  LEU57       0.0001
     96  CD2       16.3760   59.4610   15.9610 C.3    57  LEU57       0.0001
     97  N         22.0550   61.6070   12.5820 N.3    66  LEU66      -0.1231
     98  CA        21.2470   60.7660   11.7090 C.3    66  LEU66       0.1693
     99  C         21.6630   59.3130   11.8740 C.2    66  LEU66       0.2592
    100  O         20.8200   58.4150   11.8780 O.2    66  LEU66      -0.2718
    101  CB        21.4430   61.1530   10.2390 C.3    66  LEU66       0.0284
    102  CG        21.0430   62.5630    9.8020 C.3    66  LEU66       0.0019
    103  CD1       21.2100   62.6940    8.2810 C.3    66  LEU66       0.0001
    104  CD2       19.5990   62.8230   10.2050 C.3    66  LEU66       0.0001
    105  N         22.9700   59.0890   12.0000 N.am   67  TRP67      -0.1976
    106  CA        23.4950   57.7380   12.1420 C.3    67  TRP67       0.1640
    107  C         24.3850   57.5680   13.3720 C.2    67  TRP67       0.2290
    108  O         23.8880   57.3860   14.4830 O.2    67  TRP67      -0.2864
    109  CB        24.2700   57.3480   10.8840 C.3    67  TRP67       0.0576
    110  CG        23.5010   57.5380    9.6130 C.ar   67  TRP67       0.0006
    111  CD1       23.6010   58.5840    8.7430 C.ar   67  TRP67       0.0946
    112  CD2       22.5050   56.6590    9.0730 C.ar   67  TRP67       0.0152
    113  NE1       22.7290   58.4110    7.6940 N.ar   67  TRP67      -0.2442
    114  CE2       22.0460   57.2370    7.8710 C.ar   67  TRP67       0.0810
    115  CE3       21.9570   55.4380    9.4910 C.ar   67  TRP67       0.0012
    116  CZ2       21.0630   56.6360    7.0760 C.ar   67  TRP67       0.0191
    117  CZ3       20.9800   54.8410    8.7020 C.ar   67  TRP67       0.0001
    118  CH2       20.5440   55.4410    7.5060 C.ar   67  TRP67       0.0015
    119  N         22.7310   58.9260    3.1120 N.3    87  SER87      -0.1202
    120  CA        22.3140   57.5280    3.0920 C.3    87  SER87       0.2020
    121  C         23.4850   56.5490    3.0710 C.2    87  SER87       0.2619
    122  O         24.5490   56.8400    2.5220 O.2    87  SER87      -0.2717
    123  CB        21.4190   57.2660    1.8780 C.3    87  SER87       0.2103
    124  OG        21.0640   55.8950    1.7970 O.3    87  SER87      -0.2182
    125  N         23.2720   55.3800    3.6680 N.am   88  ARG88      -0.1965
    126  CA        24.2960   54.3410    3.7210 C.3    88  ARG88       0.1729
    127  C         24.2350   53.4720    2.4710 C.2    88  ARG88       0.2616
    128  O         25.2540   52.9710    1.9980 O.2    88  ARG88      -0.2715
    129  CB        24.0850   53.4430    4.9390 C.3    88  ARG88       0.0348
    130  CG        23.9850   54.1640    6.2680 C.3    88  ARG88       0.0492
    131  CD        23.9570   53.1450    7.3920 C.3    88  ARG88       0.2205
    132  NE        22.8810   52.1740    7.2100 N.pl3  88  ARG88      -0.0865
    133  CZ        22.8930   50.9440    7.7130 C.cat  88  ARG88       0.5346
    134  NH1       23.9280   50.5310    8.4290 N.pl3  88  ARG88       0.1354
    135  NH2       21.8720   50.1270    7.4980 N.pl3  88  ARG88       0.1354
    136  N         23.0290   53.2990    1.9440 N.am   89  ASN89      -0.1958
    137  CA        22.8120   52.4710    0.7680 C.3    89  ASN89       0.1819
    138  C         22.9450   53.2210   -0.5510 C.2    89  ASN89       0.2621
    139  O         23.0550   52.6020   -1.6100 O.2    89  ASN89      -0.2715
    140  CB        21.4290   51.8230    0.8480 C.3    89  ASN89       0.1195
    141  CG        21.2340   51.0290    2.1230 C.2    89  ASN89       0.2630
    142  OD1       21.9510   50.0630    2.3800 O.2    89  ASN89      -0.2716
    143  ND2       20.2610   51.4350    2.9320 N.am   89  ASN89      -0.0877
    144  N         22.9290   54.5490   -0.4970 N.am   90  GLN90      -0.1977
    145  CA        23.0360   55.3450   -1.7150 C.3    90  GLN90       0.1601
    146  C         23.8590   56.6070   -1.4950 C.2    90  GLN90       0.2287
    147  O         24.0140   57.0650   -0.3650 O.2    90  GLN90      -0.2864
    148  CB        21.6390   55.7310   -2.2030 C.3    90  GLN90       0.0394
    149  CG        20.6290   54.6050   -2.0940 C.3    90  GLN90       0.0908
    150  CD        19.2630   55.0020   -2.5980 C.2    90  GLN90       0.2608
    151  OE1       19.0220   55.0400   -3.8040 O.2    90  GLN90      -0.2717
    152  NE2       18.3600   55.3160   -1.6750 N.am   90  GLN90      -0.0878
@<TRIPOS>BOND
     1   151   150    2
     2   150   149    1
     3   150   152   am
     4   148   149    1
     5   148   145    1
     6   145   146    1
     7   145   144    1
     8   139   138    2
     9   146   147    2
    10    58    56   am
    11   138   144   am
    12   138   137    1
    13    56    55    1
    14    56    57    2
    15    55    54    1
    16    50    51    1
    17   137   140    1
    18   137   136    1
    19   140   141    1
    20    54    51    1
    21    51    52    1
    22   124   123    1
    23   123   120    1
    24   136   127   am
    25   128   127    2
    26   141   142    2
    27   141   143   am
    28   127   126    1
    29   122   121    2
    30    53    52    2
    31    52    59   am
    32   121   120    1
    33   121   125   am
    34   120   119    1
    35    68    67   ar
    36    68    66   ar
    37     4     3    2
    38    67    65   ar
    39   125   126    1
    40   126   129    1
    41    59    60    1
    42    79    77   ar
    43    79    78   ar
    44    77    75   ar
    45    66    64   ar
    46     3     2    1
    47    65    64   ar
    48    64    63    1
    49   129   130    1
    50    78    76   ar
    51    60    63    1
    52    60    61    1
    53    75    74   ar
    54    11     9    1
    55     6     5    1
    56     6     7    1
    57     2     5    1
    58     2     1    1
    59     8     9    2
    60     8     7    1
    61    61    62    2
    62    61    69   am
    63     9    10    1
    64    76    74   ar
    65   130   131    1
    66    74    73    1
    67    19    18    1
    68    19    20    2
    69    69    70    1
    70    18    17    1
    71   116   118   ar
    72   116   114   ar
    73   132   131    1
    74   132   133    2
    75    22    20    1
    76   135   133    1
    77    20    21    1
    78   118   117   ar
    79    73    70    1
    80   113   114   ar
    81   113   111   ar
    82   133   134    1
    83   114   112   ar
    84    70    71    1
    85    17    16    1
    86    16    13    1
    87   103   102    1
    88    36    35   ar
    89    12    13    1
    90   117   115   ar
    91   111   110   ar
    92    47    46    2
    93    37    35   ar
    94    13    14    1
    95    46    45    1
    96   112   115   ar
    97   112   110   ar
    98    35    34    1
    99    71    72    2
   100    71    80   am
   101   110   109    1
   102   102   104    1
   103   102   101    1
   104    48    45    1
   105    48    49    1
   106   101    98    1
   107    45    44    1
   108    80    81    1
   109    14    15    2
   110    34    33    1
   111   109   106    1
   112    33    30    1
   113    81    82    1
   114    81    84    1
   115    98    99    1
   116    98    97    1
   117    99   100    2
   118    99   105   am
   119   105   106    1
   120    83    82    2
   121   106   107    1
   122    85    84    1
   123    85    86    1
   124    29    30    1
   125    29    25   am
   126    30    31    1
   127    24    23    1
   128    24    25    1
   129    24    27    1
   130    87    86    1
   131    87    88    1
   132    25    26    2
   133    43    42    1
   134   107   108    2
   135    38    31   am
   136    38    39    1
   137    42    39    1
   138    31    32    2
   139    28    27    1
   140    39    40    1
   141    89    90    1
   142    95    94    1
   143    94    96    1
   144    94    93    1
   145    40    41    2
   146    93    90    1
   147    90    91    1
   148    92    91    2
