@<TRIPOS>MOLECULE
tmp/2hv2B01.pdb
 177 177 0 0 0
SMALL
GASTEIGER

@<TRIPOS>ATOM
      1  N         46.2710   -1.6480   53.6940 N.3   128  TYR128     -0.1241
      2  CA        47.6280   -1.4890   53.2090 C.3   128  TYR128      0.1605
      3  C         48.2170   -2.8330   52.8780 C.2   128  TYR128      0.2264
      4  O         48.0830   -3.7720   53.6440 O.2   128  TYR128     -0.2867
      5  CB        48.5210   -0.8580   54.2630 C.3   128  TYR128      0.0534
      6  CG        48.1270    0.5070   54.7210 C.ar  128  TYR128     -0.0201
      7  CD1       47.2720    0.6620   55.7760 C.ar  128  TYR128     -0.0009
      8  CD2       48.6430    1.6380   54.1150 C.ar  128  TYR128     -0.0009
      9  CE1       46.9090    1.9070   56.2230 C.ar  128  TYR128      0.0417
     10  CE2       48.3060    2.9060   54.5550 C.ar  128  TYR128      0.0417
     11  CZ        47.4360    3.0410   55.6140 C.ar  128  TYR128      0.1957
     12  OH        47.0930    4.3010   56.0860 O.3   128  TYR128     -0.2866
     13  N         52.0390   -4.2380   51.5270 N.3   130  ILE130     -0.1245
     14  CA        53.3750   -3.9020   51.1230 C.3   130  ILE130      0.1561
     15  C         54.2040   -5.1780   50.9130 C.2   130  ILE130      0.2260
     16  O         54.0760   -6.1430   51.6550 O.2   130  ILE130     -0.2867
     17  CB        53.9700   -2.9200   52.1520 C.3   130  ILE130      0.0252
     18  CG1       55.3980   -2.5450   51.7730 C.3   130  ILE130      0.0019
     19  CG2       53.9360   -3.4900   53.5450 C.3   130  ILE130      0.0019
     20  CD1       55.8190   -1.2240   52.3570 C.3   130  ILE130      0.0001
     21  N         59.3180   -2.9250   52.7200 N.3   135  TRP135     -0.1228
     22  CA        59.2250   -2.4910   54.1080 C.3   135  TRP135      0.1722
     23  C         60.4910   -1.7210   54.4280 C.2   135  TRP135      0.2437
     24  O         61.5810   -2.2610   54.2550 O.2   135  TRP135     -0.2733
     25  CB        59.0610   -3.6500   55.1050 C.3   135  TRP135      0.0563
     26  CG        58.7450   -3.1040   56.4530 C.ar  135  TRP135      0.0003
     27  CD1       59.6320   -2.6480   57.3640 C.ar  135  TRP135      0.0946
     28  CD2       57.4530   -2.8580   56.9930 C.ar  135  TRP135      0.0152
     29  NE1       58.9740   -2.1520   58.4600 N.ar  135  TRP135     -0.2442
     30  CE2       57.6320   -2.2690   58.2570 C.ar  135  TRP135      0.0810
     31  CE3       56.1490   -3.0990   56.5480 C.ar  135  TRP135      0.0012
     32  CZ2       56.5760   -1.9230   59.0780 C.ar  135  TRP135      0.0191
     33  CZ3       55.0920   -2.7550   57.3740 C.ar  135  TRP135      0.0001
     34  CH2       55.3130   -2.1750   58.6240 C.ar  135  TRP135      0.0015
     35  N         60.3580   -0.4690   54.8670 N.am  136  PRO136     -0.2718
     36  CA        61.5110    0.4100   55.0120 C.3   136  PRO136      0.1535
     37  C         62.5020    0.0010   56.0740 C.2   136  PRO136      0.2598
     38  O         62.1520   -0.7210   57.0000 O.2   136  PRO136     -0.2715
     39  CB        60.8870    1.7670   55.3530 C.3   136  PRO136      0.0310
     40  CG        59.5380    1.4690   55.8820 C.3   136  PRO136      0.0237
     41  CD        59.1020    0.2210   55.2100 C.3   136  PRO136      0.0939
     42  N         63.7550    0.4200   55.9790 N.am  137  ARG137     -0.1964
     43  CA        64.7360    0.2560   57.0570 C.3   137  ARG137      0.1729
     44  C         64.4750    1.2930   58.1450 C.2   137  ARG137      0.2616
     45  O         64.2390    2.4570   57.8500 O.2   137  ARG137     -0.2715
     46  CB        66.1620    0.4400   56.5160 C.3   137  ARG137      0.0348
     47  CG        67.2410   -0.2930   57.3150 C.3   137  ARG137      0.0492
     48  CD        68.6460   -0.3530   56.6660 C.3   137  ARG137      0.2205
     49  NE        68.6600   -0.1670   55.2010 N.pl3 137  ARG137     -0.0865
     50  CZ        68.1210   -1.0140   54.2980 C.cat 137  ARG137      0.5346
     51  NH1       67.4810   -2.1260   54.6860 N.pl3 137  ARG137      0.1354
     52  NH2       68.1980   -0.7330   52.9920 N.pl3 137  ARG137      0.1354
     53  N         64.5150    0.9360   59.4230 N.am  138  VAL138     -0.1977
     54  CA        64.2740    1.8670   60.5000 C.3   138  VAL138      0.1596
     55  C         65.4190    1.7700   61.4980 C.2   138  VAL138      0.2287
     56  O         65.7000    0.7050   62.0290 O.2   138  VAL138     -0.2864
     57  CB        62.9260    1.5970   61.2000 C.3   138  VAL138      0.0276
     58  CG1       62.6950    2.6130   62.3090 C.3   138  VAL138      0.0022
     59  CG2       61.7820    1.6250   60.1930 C.3   138  VAL138      0.0022
     60  N         49.4470   -7.3850   60.4890 N.3   217  ILE217     -0.1245
     61  CA        49.3410   -6.4320   61.5860 C.3   217  ILE217      0.1561
     62  C         47.8560   -6.4790   61.9520 C.2   217  ILE217      0.2260
     63  O         47.0010   -5.9150   61.2430 O.2   217  ILE217     -0.2867
     64  CB        49.8110   -4.9960   61.1760 C.3   217  ILE217      0.0252
     65  CG1       51.2430   -5.0400   60.6010 C.3   217  ILE217      0.0019
     66  CG2       49.7660   -4.0620   62.3630 C.3   217  ILE217      0.0019
     67  CD1       51.7220   -3.7270   60.0290 C.3   217  ILE217      0.0001
     68  N         47.9750   -2.1340   65.5700 N.3   220  TRP220     -0.1241
     69  CA        49.2200   -1.4620   65.8820 C.3   220  TRP220      0.1605
     70  C         48.8770   -0.0730   66.3620 C.2   220  TRP220      0.2264
     71  O         48.3440    0.7250   65.6090 O.2   220  TRP220     -0.2867
     72  CB        50.1060   -1.4140   64.6410 C.3   220  TRP220      0.0550
     73  CG        51.4200   -0.7130   64.7720 C.ar  220  TRP220      0.0003
     74  CD1       52.1010   -0.4100   65.9190 C.ar  220  TRP220      0.0946
     75  CD2       52.2460   -0.2680   63.6990 C.ar  220  TRP220      0.0152
     76  NE1       53.2960    0.2060   65.6220 N.ar  220  TRP220     -0.2442
     77  CE2       53.4060    0.3060   64.2630 C.ar  220  TRP220      0.0810
     78  CE3       52.1140   -0.2750   62.3120 C.ar  220  TRP220      0.0012
     79  CZ2       54.4120    0.8600   63.4880 C.ar  220  TRP220      0.0191
     80  CZ3       53.1160    0.2600   61.5470 C.ar  220  TRP220      0.0001
     81  CH2       54.2540    0.8140   62.1280 C.ar  220  TRP220      0.0015
     82  N         56.3150    4.4540   67.6560 N.3   228  PHE228     -0.1227
     83  CA        56.0500    4.1930   66.2460 C.3   228  PHE228      0.1736
     84  C         57.2760    3.6000   65.5780 C.2   228  PHE228      0.2595
     85  O         57.1890    2.5510   64.9320 O.2   228  PHE228     -0.2718
     86  CB        55.6780    5.5170   65.5630 C.3   228  PHE228      0.0547
     87  CG        55.6580    5.4550   64.0630 C.ar  228  PHE228     -0.0202
     88  CD1       54.7660    4.6420   63.4120 C.ar  228  PHE228     -0.0042
     89  CD2       56.5260    6.2220   63.3210 C.ar  228  PHE228     -0.0042
     90  CE1       54.7450    4.5910   62.0490 C.ar  228  PHE228     -0.0003
     91  CE2       56.5010    6.1780   61.9650 C.ar  228  PHE228     -0.0003
     92  CZ        55.6080    5.3620   61.3260 C.ar  228  PHE228     -0.0000
     93  N         58.4480    4.2170   65.7170 N.am  229  LYS229     -0.1980
     94  CA        59.6670    3.7930   65.0410 C.3   229  LYS229      0.1596
     95  C         60.1700    2.5060   65.6570 C.2   229  LYS229      0.2287
     96  O         60.5970    1.6030   64.9470 O.2   229  LYS229     -0.2864
     97  CB        60.7580    4.8730   65.1350 C.3   229  LYS229      0.0298
     98  CG        60.8080    5.8450   63.9660 C.3   229  LYS229      0.0038
     99  CD        61.2090    7.2440   64.4060 C.3   229  LYS229      0.0206
    100  CE        62.4770    7.2980   65.2460 C.3   229  LYS229      0.1093
    101  NZ        63.4580    8.3080   64.7470 N.3   229  LYS229     -0.1314
    102  N         57.9130   -0.1850   64.2510 N.3   232  ALA232     -0.1245
    103  CA        58.1110   -0.3280   62.7990 C.3   232  ALA232      0.1562
    104  C         59.3580   -1.1580   62.4850 C.2   232  ALA232      0.2260
    105  O         59.3520   -1.9910   61.5590 O.2   232  ALA232     -0.2867
    106  CB        58.2300    1.0470   62.1540 C.3   232  ALA232      0.0290
    107  N         53.6650   -7.6040   54.0500 N.3   245  PHE245     -0.1227
    108  CA        52.9950   -7.1980   55.2520 C.3   245  PHE245      0.1736
    109  C         51.6080   -6.7110   54.8560 C.2   245  PHE245      0.2595
    110  O         51.4040   -6.1860   53.7640 O.2   245  PHE245     -0.2718
    111  CB        53.7900   -6.1150   55.9790 C.3   245  PHE245      0.0547
    112  CG        55.1950   -6.5410   56.3710 C.ar  245  PHE245     -0.0202
    113  CD1       56.2080   -6.5790   55.4320 C.ar  245  PHE245     -0.0042
    114  CD2       55.4880   -6.8740   57.6630 C.ar  245  PHE245     -0.0042
    115  CE1       57.4730   -6.9480   55.7920 C.ar  245  PHE245     -0.0003
    116  CE2       56.7530   -7.2460   58.0200 C.ar  245  PHE245     -0.0003
    117  CZ        57.7380   -7.2870   57.0860 C.ar  245  PHE245     -0.0000
    118  N         50.5980   -6.9350   55.6930 N.am  246  HIS246     -0.1961
    119  CA        49.2250   -6.5380   55.4320 C.3   246  HIS246      0.1787
    120  C         48.6500   -5.8760   56.6780 C.2   246  HIS246      0.2620
    121  O         48.9450   -6.2840   57.7950 O.2   246  HIS246     -0.2715
    122  CB        48.4370   -7.7690   55.0640 C.3   246  HIS246      0.0785
    123  CG        47.0450   -7.4950   54.6150 C.ar  246  HIS246      0.0821
    124  ND1       45.9440   -7.9710   55.2920 N.ar  246  HIS246     -0.2267
    125  CD2       46.5680   -6.8360   53.5330 C.ar  246  HIS246      0.1154
    126  CE1       44.8470   -7.5980   54.6560 C.ar  246  HIS246      0.1986
    127  NE2       45.1990   -6.9230   53.5750 N.ar  246  HIS246     -0.2212
    128  N         47.8460   -4.8360   56.5440 N.am  247  TRP247     -0.1974
    129  CA        47.2610   -4.1030   57.6500 C.3   247  TRP247      0.1640
    130  C         45.9480   -3.5000   57.2250 C.2   247  TRP247      0.2290
    131  O         45.8870   -2.8370   56.1990 O.2   247  TRP247     -0.2864
    132  CB        48.2120   -2.9940   58.0510 C.3   247  TRP247      0.0576
    133  CG        47.8600   -2.2620   59.3030 C.ar  247  TRP247      0.0006
    134  CD1       46.9630   -2.6300   60.2530 C.ar  247  TRP247      0.0946
    135  CD2       48.4610   -1.0550   59.7680 C.ar  247  TRP247      0.0152
    136  NE1       46.9690   -1.7260   61.2810 N.ar  247  TRP247     -0.2442
    137  CE2       47.8870   -0.7520   61.0100 C.ar  247  TRP247      0.0810
    138  CE3       49.4490   -0.2030   59.2600 C.ar  247  TRP247      0.0012
    139  CZ2       48.2300    0.3860   61.7340 C.ar  247  TRP247      0.0191
    140  CZ3       49.8050    0.9230   59.9810 C.ar  247  TRP247      0.0001
    141  CH2       49.1850    1.2220   61.1940 C.ar  247  TRP247      0.0015
    142  N         48.9980    6.4330   55.6070 N.3   256  LEU256     -0.1231
    143  CA        50.3260    6.4860   56.2010 C.3   256  LEU256      0.1693
    144  C         51.4230    6.3230   55.1460 C.2   256  LEU256      0.2592
    145  O         52.6050    6.4350   55.4660 O.2   256  LEU256     -0.2718
    146  CB        50.4560    5.3660   57.2510 C.3   256  LEU256      0.0284
    147  CG        49.7630    5.5200   58.6380 C.3   256  LEU256      0.0019
    148  CD1       49.7000    6.9910   59.1250 C.3   256  LEU256      0.0001
    149  CD2       48.3830    4.9280   58.6280 C.3   256  LEU256      0.0001
    150  N         51.0970    6.0720   53.8750 N.am  257  ASN257     -0.1974
    151  CA        52.0690    5.7320   52.8260 C.3   257  ASN257      0.1688
    152  C         53.2400    6.7150   52.7860 C.2   257  ASN257      0.2292
    153  O         54.3920    6.3190   52.6330 O.2   257  ASN257     -0.2864
    154  CB        51.3490    5.7150   51.4510 C.3   257  ASN257      0.1181
    155  CG        51.8640    4.6400   50.4980 C.2   257  ASN257      0.2629
    156  OD1       52.7330    3.8510   50.8090 O.2   257  ASN257     -0.2716
    157  ND2       51.2860    4.6080   49.3220 N.am  257  ASN257     -0.0877
    158  N         54.6630    8.3950   55.1880 N.3   259  LEU259     -0.1245
    159  CA        55.6260    8.3010   56.2890 C.3   259  LEU259      0.1561
    160  C         56.8430    7.4900   55.8650 C.2   259  LEU259      0.2260
    161  O         57.8750    7.5550   56.5190 O.2   259  LEU259     -0.2867
    162  CB        54.9920    7.6820   57.5500 C.3   259  LEU259      0.0270
    163  CG        53.7040    8.3530   58.0610 C.3   259  LEU259      0.0019
    164  CD1       53.2320    7.7020   59.3300 C.3   259  LEU259      0.0001
    165  CD2       53.9040    9.8290   58.2790 C.3   259  LEU259      0.0001
    166  N         59.9350    6.7540   53.0170 N.3   260  PRO260     -0.2116
    167  CA        60.6670    7.4610   51.9530 C.3   260  PRO260      0.1372
    168  C         60.2430    7.0500   50.5360 C.2   260  PRO260      0.2244
    169  O         60.3650    7.8460   49.5800 O.2   260  PRO260     -0.2868
    170  CB        62.1380    7.0920   52.2080 C.3   260  PRO260      0.0268
    171  CG        62.1250    5.9160   53.1280 C.3   260  PRO260      0.0207
    172  CD        60.8200    5.9270   53.8570 C.3   260  PRO260      0.0892
    173  N         53.3060    1.0080   49.6050 N.3   264  ALA264     -0.1245
    174  CA        52.1350    0.2550   49.9870 C.3   264  ALA264      0.1562
    175  C         51.0820    0.4600   48.9240 C.2   264  ALA264      0.2260
    176  O         50.9550    1.5600   48.3620 O.2   264  ALA264     -0.2867
    177  CB        51.6030    0.6880   51.3640 C.3   264  ALA264      0.0290
@<TRIPOS>BOND
     1   176   175    2
     2   175   174    1
     3   157   155   am
     4   169   168    2
     5   173   174    1
     6   174   177    1
     7   155   156    2
     8   155   154    1
     9   168   167    1
    10    15    14    1
    11    15    16    2
    12    14    13    1
    13    14    17    1
    14   154   151    1
    15    18    17    1
    16    18    20    1
    17   167   170    1
    18   167   166    1
    19    17    19    1
    20   170   171    1
    21   153   152    2
    22    21    22    1
    23   152   151    1
    24   151   150    1
    25     3     2    1
    26     3     4    2
    27    52    50    1
    28   166   172    1
    29   171   172    1
    30     2     1    1
    31     2     5    1
    32   125   127   ar
    33   125   123   ar
    34   127   126   ar
    35   110   109    2
    36   150   144   am
    37   107   108    1
    38    22    23    1
    39    22    25    1
    40     8    10   ar
    41     8     6   ar
    42    24    23    2
    43     5     6    1
    44    50    51    1
    45    50    49    2
    46    23    35   am
    47    10    11   ar
    48   123   122    1
    49   123   124   ar
    50   126   124   ar
    51     6     7   ar
    52   109   108    1
    53   109   118   am
    54    35    36    1
    55    35    41    1
    56    36    39    1
    57    36    37    1
    58   122   119    1
    59    25    26    1
    60   144   145    2
    61   144   143    1
    62   158   159    1
    63    49    48    1
    64    41    40    1
    65   108   111    1
    66    39    40    1
    67   119   118    1
    68   119   120    1
    69   113   115   ar
    70   113   112   ar
    71   142   143    1
    72    11    12    1
    73    11     9   ar
    74     7     9   ar
    75   115   117   ar
    76   160   159    1
    77   160   161    2
    78   111   112    1
    79    42    37   am
    80    42    43    1
    81    37    38    2
    82   131   130    2
    83   143   146    1
    84   159   162    1
    85   112   114   ar
    86    26    28   ar
    87    26    27   ar
    88    46    43    1
    89    46    47    1
    90   128   120   am
    91   128   129    1
    92    31    28   ar
    93    31    33   ar
    94    48    47    1
    95   120   121    2
    96    28    30   ar
    97    43    44    1
    98   117   116   ar
    99   130   129    1
   100   146   147    1
   101    27    29   ar
   102    33    34   ar
   103   162   163    1
   104   129   132    1
   105   114   116   ar
   106    45    44    2
   107   132   133    1
   108   163   165    1
   109   163   164    1
   110    44    53   am
   111    30    29   ar
   112    30    32   ar
   113    34    32   ar
   114   149   147    1
   115   147   148    1
   116   138   135   ar
   117   138   140   ar
   118   133   135   ar
   119   133   134   ar
   120    53    54    1
   121   135   137   ar
   122   140   141   ar
   123    67    65    1
   124    59    57    1
   125   134   136   ar
   126    60    61    1
   127    54    57    1
   128    54    55    1
   129    65    64    1
   130   137   136   ar
   131   137   139   ar
   132    64    61    1
   133    64    66    1
   134   141   139   ar
   135    57    58    1
   136    63    62    2
   137    92    91   ar
   138    92    90   ar
   139    55    56    2
   140    80    81   ar
   141    80    78   ar
   142   105   104    2
   143    61    62    1
   144    91    89   ar
   145    90    88   ar
   146    81    79   ar
   147   106   103    1
   148    78    75   ar
   149   104   103    1
   150   103   102    1
   151    89    87   ar
   152    88    87   ar
   153    79    77   ar
   154    75    77   ar
   155    75    73   ar
   156    98    99    1
   157    98    97    1
   158    87    86    1
   159    77    76   ar
   160    99   100    1
   161    72    73    1
   162    72    69    1
   163   101   100    1
   164    73    74   ar
   165    85    84    2
   166    96    95    2
   167    94    97    1
   168    94    95    1
   169    94    93    1
   170    86    83    1
   171    68    69    1
   172    84    93   am
   173    84    83    1
   174    71    70    2
   175    76    74   ar
   176    69    70    1
   177    83    82    1
