@<TRIPOS>MOLECULE
tmp/2hv7G00.pdb
 101 98 0 0 0
SMALL
GASTEIGER

@<TRIPOS>ATOM
      1  N        -37.5480  -27.7310   40.1010 N.3   127  ARG127     -0.1245
      2  CA       -37.4930  -26.2690   40.3590 C.3   127  ARG127      0.1563
      3  C        -36.5470  -25.9070   41.5200 C.2   127  ARG127      0.2260
      4  O        -36.3980  -24.7280   41.8620 O.2   127  ARG127     -0.2867
      5  CB       -38.8960  -25.6290   40.5780 C.3   127  ARG127      0.0307
      6  CG       -38.9260  -24.0410   40.3550 C.3   127  ARG127      0.0489
      7  CD       -40.0660  -23.2510   41.1250 C.3   127  ARG127      0.2205
      8  NE       -39.8460  -21.7860   41.1500 N.pl3 127  ARG127     -0.0865
      9  CZ       -40.5680  -20.8840   41.8320 C.cat 127  ARG127      0.5346
     10  NH1      -41.5970  -21.2450   42.5860 N.pl3 127  ARG127      0.1354
     11  NH2      -40.2530  -19.5950   41.7570 N.pl3 127  ARG127      0.1354
     12  N        -36.8560  -26.2050   44.7900 N.3   129  ASP129     -0.1239
     13  CA       -37.5730  -25.4880   45.8350 C.3   129  ASP129      0.1674
     14  C        -38.0900  -26.4590   46.9010 C.2   129  ASP129      0.2266
     15  O        -37.8950  -27.6610   46.7700 O.2   129  ASP129     -0.2867
     16  CB       -38.7080  -24.6330   45.2460 C.3   129  ASP129      0.1410
     17  CG       -39.7450  -25.4530   44.4860 C.2   129  ASP129      0.3668
     18  OD1      -39.7920  -26.6910   44.6430 O.co2 129  ASP129     -0.2456
     19  OD2      -40.5260  -24.8410   43.7280 O.co2 129  ASP129     -0.2456
     20  N        -41.4930  -26.4830   50.0680 N.3   131  GLY131     -0.1210
     21  CA       -42.6200  -25.7760   50.6680 C.3   131  GLY131      0.1956
     22  C        -43.2550  -26.4970   51.8370 C.2   131  GLY131      0.2613
     23  O        -42.7160  -27.4670   52.3710 O.2   131  GLY131     -0.2717
     24  N        -44.4270  -26.0100   52.2300 N.am  132  THR132     -0.1938
     25  CA       -45.2040  -26.6240   53.3020 C.3   132  THR132      0.2028
     26  C        -45.8520  -27.9280   52.8180 C.2   132  THR132      0.2643
     27  O        -46.0980  -28.8410   53.6130 O.2   132  THR132     -0.2714
     28  CB       -46.2380  -25.6480   53.8670 C.3   132  THR132      0.1808
     29  OG1      -47.0580  -25.1720   52.8050 O.3   132  THR132     -0.2208
     30  CG2      -45.5650  -24.4540   54.5180 C.3   132  THR132      0.0379
     31  N        -46.0930  -28.0220   51.5130 N.am  133  GLY133     -0.1939
     32  CA       -46.5110  -29.2760   50.8900 C.3   133  GLY133      0.2014
     33  C        -45.5340  -30.4160   51.1470 C.2   133  GLY133      0.2638
     34  O        -45.9320  -31.5060   51.5640 O.2   133  GLY133     -0.2714
     35  N        -44.2500  -30.1710   50.8920 N.am  134  HIS134     -0.1973
     36  CA       -43.2170  -31.1620   51.1830 C.3   134  HIS134      0.1656
     37  C        -43.1620  -31.4520   52.6910 C.2   134  HIS134      0.2291
     38  O        -43.0280  -32.6150   53.1040 O.2   134  HIS134     -0.2864
     39  CB       -41.8480  -30.7310   50.6310 C.3   134  HIS134      0.0771
     40  CG       -41.8000  -30.6300   49.1340 C.ar  134  HIS134      0.0820
     41  ND1      -41.8280  -29.4220   48.4630 N.ar  134  HIS134     -0.2267
     42  CD2      -41.7110  -31.5840   48.1740 C.ar  134  HIS134      0.1154
     43  CE1      -41.7710  -29.6390   47.1600 C.ar  134  HIS134      0.1986
     44  NE2      -41.6980  -30.9420   46.9580 N.ar  134  HIS134     -0.2212
     45  N        -40.8670  -22.7310   47.4370 N.3   183  ALA183     -0.1231
     46  CA       -41.8690  -23.2030   46.4830 C.3   183  ALA183      0.1694
     47  C        -43.0860  -22.2800   46.4790 C.2   183  ALA183      0.2593
     48  O        -43.7010  -22.0210   47.5240 O.2   183  ALA183     -0.2718
     49  CB       -42.2800  -24.6620   46.7860 C.3   183  ALA183      0.0304
     50  N        -43.4090  -21.7640   45.2980 N.am  184  GLY184     -0.1942
     51  CA       -44.5650  -20.8760   45.1210 C.3   184  GLY184      0.2014
     52  C        -44.3090  -19.3910   45.3120 C.2   184  GLY184      0.2640
     53  O        -43.2970  -18.9780   45.8880 O.2   184  GLY184     -0.2714
     54  N        -45.2540  -18.5930   44.8280 N.am  185  SER185     -0.1935
     55  CA       -45.1680  -17.1320   44.9040 C.3   185  SER185      0.2055
     56  C        -45.7890  -16.6400   46.2070 C.2   185  SER185      0.2642
     57  O        -46.8840  -16.0870   46.2140 O.2   185  SER185     -0.2714
     58  CB       -45.8710  -16.4980   43.7040 C.3   185  SER185      0.2130
     59  OG       -45.6160  -17.2380   42.5190 O.3   185  SER185     -0.2179
     60  N        -45.0650  -16.8560   47.3040 N.am  186  GLN186     -0.1976
     61  CA       -45.5600  -16.6290   48.6640 C.3   186  GLN186      0.1601
     62  C        -44.4210  -16.1220   49.6000 C.2   186  GLN186      0.2287
     63  O        -44.6890  -15.5860   50.6990 O.2   186  GLN186     -0.2864
     64  CB       -46.1770  -17.9290   49.2350 C.3   186  GLN186      0.0394
     65  CG       -47.4320  -18.4880   48.5070 C.3   186  GLN186      0.0908
     66  CD       -47.7120  -19.9780   48.8440 C.2   186  GLN186      0.2608
     67  OE1      -47.4220  -20.4450   49.9560 O.2   186  GLN186     -0.2717
     68  NE2      -48.2650  -20.7210   47.8770 N.am  186  GLN186     -0.0878
     69  N        -52.5550  -25.1080   44.9160 N.3   283  PRO283     -0.2102
     70  CA       -51.1410  -25.1510   44.5250 C.3   283  PRO283      0.1504
     71  C        -50.2150  -25.6740   45.6180 C.2   283  PRO283      0.2575
     72  O        -49.0620  -25.9390   45.3520 O.2   283  PRO283     -0.2718
     73  CB       -50.8180  -23.6890   44.2040 C.3   283  PRO283      0.0282
     74  CG       -52.1700  -23.0440   43.9670 C.3   283  PRO283      0.0208
     75  CD       -53.0680  -23.7260   44.9210 C.3   283  PRO283      0.0893
     76  N        -50.7150  -25.8470   46.8300 N.am  284  VAL284     -0.1980
     77  CA       -49.8440  -26.2270   47.9310 C.3   284  VAL284      0.1595
     78  C        -49.9450  -27.7100   48.2430 C.2   284  VAL284      0.2287
     79  O        -48.9210  -28.3640   48.4720 O.2   284  VAL284     -0.2864
     80  CB       -50.1180  -25.3830   49.1990 C.3   284  VAL284      0.0276
     81  CG1      -49.1710  -25.7910   50.3250 C.3   284  VAL284      0.0022
     82  CG2      -49.9580  -23.8900   48.8860 C.3   284  VAL284      0.0022
     83  N        -51.9940  -30.0780   46.2520 N.3   286  GLN286     -0.1231
     84  CA       -52.2590  -30.9320   45.0850 C.3   286  GLN286      0.1698
     85  C        -51.2080  -32.0400   44.8970 C.2   286  GLN286      0.2592
     86  O        -51.4540  -33.0100   44.1910 O.2   286  GLN286     -0.2718
     87  CB       -52.4000  -30.1150   43.7940 C.3   286  GLN286      0.0381
     88  CG       -51.0660  -29.6890   43.1750 C.3   286  GLN286      0.0905
     89  CD       -51.1430  -29.4860   41.6730 C.2   286  GLN286      0.2608
     90  OE1      -51.8460  -30.2220   40.9720 O.2   286  GLN286     -0.2717
     91  NE2      -50.4220  -28.4880   41.1690 N.am  286  GLN286     -0.0878
     92  N        -50.0440  -31.9060   45.5240 N.am  287  HIS287     -0.1976
     93  CA       -49.0360  -32.9610   45.4510 C.3   287  HIS287      0.1656
     94  C        -49.0260  -33.8390   46.7120 C.2   287  HIS287      0.2291
     95  O        -47.9640  -34.1510   47.2800 O.2   287  HIS287     -0.2864
     96  CB       -47.6550  -32.3790   45.0990 C.3   287  HIS287      0.0771
     97  CG       -47.6690  -31.5360   43.8600 C.ar  287  HIS287      0.0820
     98  ND1      -47.7540  -32.0790   42.5960 N.ar  287  HIS287     -0.2267
     99  CD2      -47.6540  -30.1870   43.6940 C.ar  287  HIS287      0.1154
    100  CE1      -47.7770  -31.1040   41.7030 C.ar  287  HIS287      0.1986
    101  NE2      -47.7190  -29.9470   42.3430 N.ar  287  HIS287     -0.2212
@<TRIPOS>BOND
     1     1     2    1
     2     6     5    1
     3     6     7    1
     4     2     5    1
     5     2     3    1
     6    90    89    2
     7     7     8    1
     8     8     9    2
     9    91    89   am
    10     3     4    2
    11    89    88    1
    12   100   101   ar
    13   100    98   ar
    14    11     9    1
    15     9    10    1
    16   101    99   ar
    17    59    58    1
    18    98    97   ar
    19    88    87    1
    20    99    97   ar
    21    58    55    1
    22    19    17   ar
    23    87    84    1
    24    97    96    1
    25    74    73    1
    26    74    75    1
    27    86    85    2
    28    73    70    1
    29    17    18   ar
    30    17    16    1
    31    70    69    1
    32    70    71    1
    33    12    13    1
    34    54    55    1
    35    54    52   am
    36    85    84    1
    37    85    92   am
    38    55    56    1
    39    69    75    1
    40    84    83    1
    41    96    93    1
    42    51    50    1
    43    51    52    1
    44    16    13    1
    45    50    47   am
    46    52    53    2
    47    72    71    2
    48    93    92    1
    49    93    94    1
    50    71    76   am
    51    13    14    1
    52    56    57    2
    53    56    60   am
    54    47    46    1
    55    47    48    2
    56    46    49    1
    57    46    45    1
    58    94    95    2
    59    15    14    2
    60    76    77    1
    61    44    43   ar
    62    44    42   ar
    63    43    41   ar
    64    60    61    1
    65    68    66   am
    66    77    78    1
    67    77    80    1
    68    42    40   ar
    69    78    79    2
    70    41    40   ar
    71    65    66    1
    72    65    64    1
    73    61    64    1
    74    61    62    1
    75    66    67    2
    76    82    80    1
    77    40    39    1
    78    80    81    1
    79    62    63    2
    80    20    21    1
    81    39    36    1
    82    21    22    1
    83    32    33    1
    84    32    31    1
    85    35    33   am
    86    35    36    1
    87    33    34    2
    88    36    37    1
    89    31    26   am
    90    22    24   am
    91    22    23    2
    92    24    25    1
    93    37    38    2
    94    29    28    1
    95    26    25    1
    96    26    27    2
    97    25    28    1
    98    28    30    1
