@<TRIPOS>MOLECULE
tmp/2hv8C01.pdb
 73 69 0 0 0
SMALL
GASTEIGER

@<TRIPOS>ATOM
      1  N        -49.6910   -4.2330  -11.3710 N.3    19  SER19      -0.1217
      2  CA       -48.6340   -5.0110  -10.7110 C.3    19  SER19       0.1889
      3  C        -48.7940   -5.0620   -9.1940 C.2    19  SER19       0.2288
      4  O        -48.4260   -6.0510   -8.5570 O.2    19  SER19      -0.2866
      5  CB       -47.2520   -4.4730  -11.0790 C.3    19  SER19       0.2089
      6  OG       -47.0450   -4.5590  -12.4780 O.3    19  SER19      -0.2183
      7  N        -49.0930   -8.1560   -6.7600 N.3    23  SER23      -0.1217
      8  CA       -48.2580   -8.3240   -5.5680 C.3    23  SER23       0.1889
      9  C        -49.0900   -8.4240   -4.2830 C.2    23  SER23       0.2288
     10  O        -48.7460   -9.1880   -3.3890 O.2    23  SER23      -0.2866
     11  CB       -47.1930   -7.2220   -5.4630 C.3    23  SER23       0.2089
     12  OG       -47.7800   -5.9510   -5.2450 O.3    23  SER23      -0.2183
     13  N        -48.6350  -11.9680   -2.8530 N.3    27  ARG27      -0.1245
     14  CA       -47.5310  -11.8260   -1.8930 C.3    27  ARG27       0.1563
     15  C        -47.8790  -10.9940   -0.6570 C.2    27  ARG27       0.2260
     16  O        -47.0580  -10.8840    0.2560 O.2    27  ARG27      -0.2867
     17  CB       -46.2950  -11.2210   -2.5720 C.3    27  ARG27       0.0307
     18  CG       -45.7550  -12.0060   -3.7650 C.3    27  ARG27       0.0489
     19  CD       -44.4690  -11.3870   -4.2980 C.3    27  ARG27       0.2205
     20  NE       -43.3510  -11.5760   -3.3730 N.pl3  27  ARG27      -0.0865
     21  CZ       -42.5200  -12.6150   -3.3940 C.cat  27  ARG27       0.5346
     22  NH1      -42.6640  -13.5760   -4.3000 N.pl3  27  ARG27       0.1354
     23  NH2      -41.5360  -12.6920   -2.5060 N.pl3  27  ARG27       0.1354
     24  N        -42.2310    0.6870  -10.5600 N.3    35  LYS35      -0.1231
     25  CA       -42.0490    1.2880  -11.8790 C.3    35  LYS35       0.1693
     26  C        -42.7010    0.4130  -12.9480 C.2    35  LYS35       0.2593
     27  O        -43.1260   -0.7060  -12.6630 O.2    35  LYS35      -0.2718
     28  CB       -40.5580    1.4910  -12.1720 C.3    35  LYS35       0.0285
     29  CG       -39.7800    2.2320  -11.0800 C.3    35  LYS35       0.0035
     30  CD       -40.1350    3.7080  -11.0280 C.3    35  LYS35       0.0206
     31  CE       -39.4760    4.3800   -9.8280 C.3    35  LYS35       0.1093
     32  NZ       -39.7260    5.8460   -9.8430 N.3    35  LYS35      -0.1314
     33  N        -42.7910    0.9310  -14.1700 N.am   36  SER36      -0.1938
     34  CA       -43.4570    0.2180  -15.2630 C.3    36  SER36       0.2055
     35  C        -42.8940   -1.1920  -15.4590 C.2    36  SER36       0.2644
     36  O        -41.6800   -1.4000  -15.4160 O.2    36  SER36      -0.2714
     37  CB       -43.3720    1.0180  -16.5630 C.3    36  SER36       0.2130
     38  OG       -42.0210    1.2130  -16.9600 O.3    36  SER36      -0.2179
     39  N        -43.7880   -2.1570  -15.6580 N.am   37  THR37      -0.1936
     40  CA       -43.3850   -3.5500  -15.8490 C.3    37  THR37       0.2028
     41  C        -42.5980   -3.7100  -17.1470 C.2    37  THR37       0.2642
     42  O        -43.0710   -3.3350  -18.2200 O.2    37  THR37      -0.2714
     43  CB       -44.6060   -4.4970  -15.8240 C.3    37  THR37       0.1808
     44  OG1      -45.2920   -4.3350  -14.5770 O.3    37  THR37      -0.2208
     45  CG2      -44.1820   -5.9600  -15.9700 C.3    37  THR37       0.0379
     46  N        -41.3920   -4.2580  -17.0360 N.am   38  ILE38      -0.1963
     47  CA       -40.4940   -4.3960  -18.1890 C.3    38  ILE38       0.1727
     48  C        -40.8530   -5.5920  -19.0750 C.2    38  ILE38       0.2617
     49  O        -40.9470   -5.4580  -20.2970 O.2    38  ILE38      -0.2715
     50  CB       -38.9990   -4.4490  -17.7490 C.3    38  ILE38       0.0290
     51  CG1      -38.6070   -3.1330  -17.0640 C.3    38  ILE38       0.0022
     52  CG2      -38.0950   -4.7260  -18.9420 C.3    38  ILE38       0.0023
     53  CD1      -37.2880   -3.1740  -16.2980 C.3    38  ILE38       0.0001
     54  N        -41.0630   -6.7520  -18.4620 N.am   39  GLY39      -0.1940
     55  CA       -41.3020   -7.9790  -19.2130 C.3    39  GLY39       0.2014
     56  C        -42.7270   -8.4900  -19.1200 C.2    39  GLY39       0.2639
     57  O        -43.6850   -7.7230  -19.1880 O.2    39  GLY39      -0.2714
     58  N        -42.8480   -9.8070  -19.0010 N.am   40  VAL40      -0.1963
     59  CA       -44.1200  -10.4750  -18.7440 C.3    40  VAL40       0.1727
     60  C        -43.8550  -11.4740  -17.6260 C.2    40  VAL40       0.2616
     61  O        -42.8510  -12.1950  -17.6460 O.2    40  VAL40      -0.2715
     62  CB       -44.6680  -11.2170  -19.9980 C.3    40  VAL40       0.0290
     63  CG1      -45.9400  -12.0030  -19.6630 C.3    40  VAL40       0.0023
     64  CG2      -44.9390  -10.2450  -21.1480 C.3    40  VAL40       0.0023
     65  N        -44.7390  -11.5010  -16.6360 N.am   41  GLU41      -0.1977
     66  CA       -44.6210  -12.4760  -15.5590 C.3    41  GLU41       0.1602
     67  C        -45.9880  -12.9050  -15.0470 C.2    41  GLU41       0.2287
     68  O        -47.0150  -12.3670  -15.4640 O.2    41  GLU41      -0.2864
     69  CB       -43.7530  -11.9360  -14.4170 C.3    41  GLU41       0.0415
     70  CG       -44.1600  -10.5760  -13.8770 C.3    41  GLU41       0.1163
     71  CD       -43.1460  -10.0190  -12.8920 C.2    41  GLU41       0.3649
     72  OE1      -41.9660  -10.4430  -12.9290 O.co2  41  GLU41      -0.2457
     73  OE2      -43.5300   -9.1660  -12.0750 O.co2  41  GLU41      -0.2457
@<TRIPOS>BOND
     1    64    62    1
     2    49    48    2
     3    62    63    1
     4    62    59    1
     5    55    56    1
     6    55    54    1
     7    57    56    2
     8    56    58   am
     9    48    54   am
    10    48    47    1
    11    58    59    1
    12    52    50    1
    13    59    60    1
    14    42    41    2
    15    47    50    1
    16    47    46    1
    17    50    51    1
    18    61    60    2
    19    60    65   am
    20    41    46   am
    21    41    40    1
    22    51    53    1
    23    38    37    1
    24    65    66    1
    25    37    34    1
    26    45    43    1
    27    40    43    1
    28    40    39    1
    29    43    44    1
    30    39    35   am
    31    66    67    1
    32    66    69    1
    33    68    67    2
    34    35    36    2
    35    35    34    1
    36    34    33    1
    37    69    70    1
    38    33    26   am
    39    70    71    1
    40    26    27    2
    41    26    25    1
    42    72    71   ar
    43    71    73   ar
    44     6     5    1
    45    28    25    1
    46    28    29    1
    47    25    24    1
    48     1     2    1
    49    29    30    1
    50     5     2    1
    51    30    31    1
    52     2     3    1
    53    32    31    1
    54     3     4    2
    55     7     8    1
    56     8    11    1
    57     8     9    1
    58    11    12    1
    59    22    21    1
    60    19    18    1
    61    19    20    1
    62     9    10    2
    63    18    17    1
    64    21    20    2
    65    21    23    1
    66    13    14    1
    67    17    14    1
    68    14    15    1
    69    15    16    2
