@<TRIPOS>MOLECULE
tmp/2hv9A00.pdb
 156 150 0 0 0
SMALL
GASTEIGER

@<TRIPOS>ATOM
      1  N          6.0590   37.7700   90.8020 N.3    14  LYS14      -0.1245
      2  CA         5.9770   36.3580   91.1110 C.3    14  LYS14       0.1561
      3  C          4.8000   36.0740   92.0220 C.2    14  LYS14       0.2260
      4  O          4.0610   35.1100   91.8160 O.2    14  LYS14      -0.2867
      5  CB         7.2840   35.8980   91.7590 C.3    14  LYS14       0.0271
      6  CG         8.4290   35.7670   90.7650 C.3    14  LYS14       0.0035
      7  CD         9.7880   35.8440   91.4420 C.3    14  LYS14       0.0206
      8  CE        10.0340   34.7140   92.4170 C.3    14  LYS14       0.1093
      9  NZ        11.3430   34.9040   93.1130 N.3    14  LYS14      -0.1314
     10  N          8.2870   23.3490   92.7310 N.3    30  ASP30      -0.1239
     11  CA         9.1030   24.5180   92.4080 C.3    30  ASP30       0.1674
     12  C         10.4360   24.1060   91.8110 C.2    30  ASP30       0.2266
     13  O         11.3360   23.6980   92.5350 O.2    30  ASP30      -0.2867
     14  CB         9.3410   25.3440   93.6810 C.3    30  ASP30       0.1410
     15  CG         9.6700   26.8020   93.3890 C.2    30  ASP30       0.3668
     16  OD1        9.9180   27.5540   94.3520 O.co2  30  ASP30      -0.2456
     17  OD2        9.6760   27.2010   92.2040 O.co2  30  ASP30      -0.2456
     18  N         14.0450   24.6790   90.1590 N.3    32  GLY32      -0.1210
     19  CA        15.0660   25.6970   90.2410 C.3    32  GLY32       0.1956
     20  C         14.6100   26.6020   91.3580 C.2    32  GLY32       0.2612
     21  O         14.7470   27.8220   91.2800 O.2    32  GLY32      -0.2717
     22  N         14.0580   25.9950   92.4060 N.am   33  CYS33      -0.1956
     23  CA        13.5330   26.7400   93.5490 C.3    33  CYS33       0.1843
     24  C         14.4990   27.7460   94.1600 C.2    33  CYS33       0.2626
     25  O         14.0640   28.7110   94.7950 O.2    33  CYS33      -0.2714
     26  CB        13.0440   25.7800   94.6410 C.3    33  CYS33       0.0997
     27  SG        14.2900   24.6770   95.3850 S.3    33  CYS33      -0.0797
     28  N         15.8020   27.5260   93.9660 N.am   34  GLY34      -0.1940
     29  CA        16.8020   28.4250   94.5190 C.3    34  GLY34       0.2014
     30  C         16.7940   28.3760   96.0340 C.2    34  GLY34       0.2638
     31  O         16.4370   27.3530   96.6120 O.2    34  GLY34      -0.2714
     32  N         17.1720   29.4700   96.6910 N.am   35  LYS35      -0.1977
     33  CA        17.1920   29.4840   98.1530 C.3    35  LYS35       0.1596
     34  C         15.7860   29.3440   98.7130 C.2    35  LYS35       0.2287
     35  O         15.5980   29.1870   99.9070 O.2    35  LYS35      -0.2864
     36  CB        17.8400   30.7670   98.6700 C.3    35  LYS35       0.0298
     37  CG        19.2440   30.9880   98.1320 C.3    35  LYS35       0.0038
     38  CD        19.8260   32.3160   98.5990 C.3    35  LYS35       0.0206
     39  CE        21.0190   32.7530   97.7440 C.3    35  LYS35       0.1093
     40  NZ        20.6210   33.1380   96.3490 N.3    35  LYS35      -0.1314
     41  N         12.7620   31.5740   98.0830 N.3    37  GLY37      -0.1210
     42  CA        12.1300   32.7870   98.5610 C.3    37  GLY37       0.1956
     43  C         10.6190   32.6980   98.4670 C.2    37  GLY37       0.2611
     44  O          9.9010   33.1290   99.3710 O.2    37  GLY37      -0.2717
     45  N         10.1330   32.1160   97.3780 N.am   38  ASP38      -0.1973
     46  CA         8.7020   31.9850   97.1510 C.3    38  ASP38       0.1709
     47  C          7.9140   31.2520   98.2210 C.2    38  ASP38       0.2293
     48  O          6.6860   31.3240   98.2350 O.2    38  ASP38      -0.2864
     49  CB         8.4480   31.3220   95.8060 C.3    38  ASP38       0.1436
     50  CG         8.9320   32.1660   94.6550 C.2    38  ASP38       0.3671
     51  OD1        8.9230   33.4070   94.7950 O.co2  38  ASP38      -0.2456
     52  OD2        9.3050   31.5960   93.6110 O.co2  38  ASP38      -0.2456
     53  N         16.1860   21.6450   92.9270 N.3    54  ASP54      -0.1225
     54  CA        17.1870   22.5800   92.4290 C.3    54  ASP54       0.1805
     55  C         18.5250   21.8580   92.3140 C.2    54  ASP54       0.2598
     56  O         18.9170   21.1370   93.2200 O.2    54  ASP54      -0.2718
     57  CB        17.2890   23.7810   93.3840 C.3    54  ASP54       0.1424
     58  CG        18.1310   24.9030   92.8230 C.2    54  ASP54       0.3668
     59  OD1       19.3430   24.6830   92.6620 O.co2  54  ASP54      -0.2456
     60  OD2       17.5870   25.9970   92.5390 O.co2  54  ASP54      -0.2456
     61  N         19.2050   22.0450   91.1880 N.am   55  ILE55      -0.1966
     62  CA        20.4880   21.4010   90.9430 C.3    55  ILE55       0.1727
     63  C         21.5500   21.8010   91.9660 C.2    55  ILE55       0.2616
     64  O         22.3630   20.9740   92.3740 O.2    55  ILE55      -0.2715
     65  CB        21.0050   21.7210   89.5250 C.3    55  ILE55       0.0290
     66  CG1       22.1390   20.7640   89.1630 C.3    55  ILE55       0.0022
     67  CG2       21.5230   23.1460   89.4610 C.3    55  ILE55       0.0023
     68  CD1       22.5080   20.7860   87.7060 C.3    55  ILE55       0.0001
     69  N         21.5340   23.0630   92.3840 N.am   56  ALA56      -0.1977
     70  CA        22.4930   23.5610   93.3680 C.3    56  ALA56       0.1597
     71  C         22.1200   23.0930   94.7600 C.2    56  ALA56       0.2287
     72  O         21.1200   23.5430   95.3470 O.2    56  ALA56      -0.2864
     73  CB        22.5520   25.0860   93.3430 C.3    56  ALA56       0.0319
     74  N         21.9450   25.7750   97.3970 N.3    59  SER59      -0.1217
     75  CA        20.7170   26.5580   97.4950 C.3    59  SER59       0.1889
     76  C         19.5770   25.8150   98.1860 C.2    59  SER59       0.2288
     77  O         18.8090   26.4060   98.9490 O.2    59  SER59      -0.2866
     78  CB        20.2870   27.0210   96.1080 C.3    59  SER59       0.2089
     79  OG        21.1770   28.0090   95.6160 O.3    59  SER59      -0.2183
     80  N         18.8040   18.1070   92.6360 N.3    81  GLN81      -0.1231
     81  CA        19.0230   17.3180   91.4380 C.3    81  GLN81       0.1698
     82  C         18.7020   18.1300   90.1870 C.2    81  GLN81       0.2592
     83  O         18.0700   19.1800   90.2640 O.2    81  GLN81      -0.2718
     84  CB        18.1710   16.0430   91.4740 C.3    81  GLN81       0.0381
     85  CG        16.7920   16.1900   90.8680 C.3    81  GLN81       0.0905
     86  CD        16.1230   14.8510   90.6390 C.2    81  GLN81       0.2608
     87  OE1       15.7220   14.1830   91.5860 O.2    81  GLN81      -0.2717
     88  NE2       16.0090   14.4470   89.3740 N.am   81  GLN81      -0.0878
     89  N         19.1590   17.6500   89.0380 N.am   82  ASP82      -0.1960
     90  CA        18.9030   18.3360   87.7860 C.3    82  ASP82       0.1840
     91  C         17.5280   17.9040   87.3010 C.2    82  ASP82       0.2623
     92  O         17.2990   16.7310   86.9880 O.2    82  ASP82      -0.2715
     93  CB        19.9990   17.9960   86.7650 C.3    82  ASP82       0.1450
     94  CG        19.5950   18.3010   85.3350 C.2    82  ASP82       0.3671
     95  OD1       18.7370   19.1820   85.1020 O.co2  82  ASP82      -0.2456
     96  OD2       20.1540   17.6540   84.4270 O.co2  82  ASP82      -0.2456
     97  N         16.6090   18.8620   87.2590 N.am   83  SER83      -0.1936
     98  CA        15.2400   18.6000   86.8310 C.3    83  SER83       0.2055
     99  C         14.9940   18.9650   85.3700 C.2    83  SER83       0.2643
    100  O         13.8610   18.8840   84.8840 O.2    83  SER83      -0.2714
    101  CB        14.2580   19.3710   87.7340 C.3    83  SER83       0.2130
    102  OG        14.5880   20.7500   87.8340 O.3    83  SER83      -0.2179
    103  N         16.0470   19.3460   84.6590 N.am   84  TYR84      -0.1959
    104  CA        15.8720   19.7410   83.2710 C.3    84  TYR84       0.1771
    105  C         16.5470   18.8140   82.2650 C.2    84  TYR84       0.2620
    106  O         15.9260   18.3890   81.2850 O.2    84  TYR84      -0.2715
    107  CB        16.4010   21.1680   83.0560 C.3    84  TYR84       0.0574
    108  CG        15.7420   22.2610   83.8750 C.ar   84  TYR84      -0.0198
    109  CD1       16.4630   23.3960   84.2430 C.ar   84  TYR84      -0.0009
    110  CD2       14.4050   22.1750   84.2710 C.ar   84  TYR84      -0.0009
    111  CE1       15.8820   24.4200   84.9900 C.ar   84  TYR84       0.0417
    112  CE2       13.8050   23.2020   85.0250 C.ar   84  TYR84       0.0417
    113  CZ        14.5550   24.3190   85.3810 C.ar   84  TYR84       0.1957
    114  OH        14.0030   25.3250   86.1450 O.3    84  TYR84      -0.2866
    115  N         17.8200   18.5100   82.5070 N.am   85  GLY85      -0.1954
    116  CA        18.5610   17.6780   81.5760 C.3    85  GLY85       0.1869
    117  C         18.8920   16.2940   82.0730 C.2    85  GLY85       0.2309
    118  O         19.9260   15.7320   81.7290 O.2    85  GLY85      -0.2863
    119  N         10.6910   29.6770   88.3600 N.3   100  GLN100     -0.1231
    120  CA        10.9780   31.1040   88.3620 C.3   100  GLN100      0.1698
    121  C         12.4280   31.4960   88.0950 C.2   100  GLN100      0.2592
    122  O         13.3020   31.3160   88.9460 O.2   100  GLN100     -0.2718
    123  CB        10.5160   31.7100   89.6870 C.3   100  GLN100      0.0381
    124  CG         9.0640   31.3860   89.9990 C.3   100  GLN100      0.0905
    125  CD         8.1190   31.8690   88.9120 C.2   100  GLN100      0.2608
    126  OE1        7.2070   31.1490   88.4980 O.2   100  GLN100     -0.2717
    127  NE2        8.3290   33.0990   88.4500 N.am  100  GLN100     -0.0878
    128  N         12.6610   32.0530   86.9080 N.am  101  PHE101     -0.1962
    129  CA        13.9840   32.4970   86.5030 C.3   101  PHE101      0.1771
    130  C         14.9270   31.3060   86.4200 C.2   101  PHE101      0.2620
    131  O         16.0630   31.3780   86.8750 O.2   101  PHE101     -0.2715
    132  CB        14.5350   33.4990   87.5190 C.3   101  PHE101      0.0574
    133  CG        13.7040   34.7360   87.6760 C.ar  101  PHE101     -0.0200
    134  CD1       12.9120   34.9180   88.7970 C.ar  101  PHE101     -0.0042
    135  CD2       13.7440   35.7420   86.7190 C.ar  101  PHE101     -0.0042
    136  CE1       12.1720   36.0890   88.9710 C.ar  101  PHE101     -0.0003
    137  CE2       13.0090   36.9180   86.8810 C.ar  101  PHE101     -0.0003
    138  CZ        12.2220   37.0910   88.0110 C.ar  101  PHE101     -0.0000
    139  N         14.4780   30.2110   85.8250 N.am  102  SER102     -0.1950
    140  CA        15.3350   29.0370   85.7750 C.3   102  SER102      0.1924
    141  C         15.1560   28.1450   84.5450 C.2   102  SER102      0.2314
    142  O         16.1030   27.4850   84.0910 O.2   102  SER102     -0.2863
    143  CB        15.1090   28.2190   87.0530 C.3   102  SER102      0.2116
    144  OG        15.8890   27.0430   87.0680 O.3   102  SER102     -0.2180
    145  N         17.5600   27.4970   81.5290 N.3   105  TYR105     -0.1241
    146  CA        18.6820   26.5670   81.6670 C.3   105  TYR105      0.1605
    147  C         18.3240   25.2070   81.0690 C.2   105  TYR105      0.2264
    148  O         19.1800   24.3390   80.9100 O.2   105  TYR105     -0.2867
    149  CB        19.0630   26.3750   83.1380 C.3   105  TYR105      0.0534
    150  CG        19.6300   27.6190   83.7530 C.ar  105  TYR105     -0.0201
    151  CD1       19.0000   28.2370   84.8290 C.ar  105  TYR105     -0.0009
    152  CD2       20.7470   28.2410   83.1890 C.ar  105  TYR105     -0.0009
    153  CE1       19.4600   29.4420   85.3210 C.ar  105  TYR105      0.0417
    154  CE2       21.2110   29.4490   83.6700 C.ar  105  TYR105      0.0417
    155  CZ        20.5670   30.0440   84.7340 C.ar  105  TYR105      0.1957
    156  OH        21.0350   31.2380   85.2160 O.3   105  TYR105     -0.2866
@<TRIPOS>BOND
     1   148   147    2
     2   147   146    1
     3   106   105    2
     4   145   146    1
     5   116   117    1
     6   116   115    1
     7   146   149    1
     8   118   117    2
     9   105   115   am
    10   105   104    1
    11   107   104    1
    12   107   108    1
    13   149   150    1
    14   152   154   ar
    15   152   150   ar
    16   104   103    1
    17   154   155   ar
    18   150   151   ar
    19   108   109   ar
    20   108   110   ar
    21   142   141    2
    22   109   111   ar
    23   110   112   ar
    24    96    94   ar
    25   141   140    1
    26   103    99   am
    27   155   156    1
    28   155   153   ar
    29   151   153   ar
    30   100    99    2
    31   111   113   ar
    32   112   113   ar
    33    95    94   ar
    34    94    93    1
    35    99    98    1
    36   113   114    1
    37   140   139    1
    38   140   143    1
    39   139   130   am
    40   130   129    1
    41   130   131    2
    42   129   128    1
    43   129   132    1
    44   135   137   ar
    45   135   133   ar
    46    93    90    1
    47    98    97    1
    48    98   101    1
    49   137   138   ar
    50   128   121   am
    51    92    91    2
    52   143   144    1
    53    97    91   am
    54    91    90    1
    55   132   133    1
    56   133   134   ar
    57    68    66    1
    58   101   102    1
    59    90    89    1
    60   138   136   ar
    61   121   120    1
    62   121   122    2
    63   119   120    1
    64   120   123    1
    65   127   125   am
    66   126   125    2
    67   134   136   ar
    68   125   124    1
    69    89    82   am
    70    66    65    1
    71    88    86   am
    72    67    65    1
    73    65    62    1
    74   123   124    1
    75    18    19    1
    76    82    83    2
    77    82    81    1
    78    19    20    1
    79    86    85    1
    80    86    87    2
    81     6     7    1
    82     6     5    1
    83     1     2    1
    84    85    84    1
    85    62    61    1
    86    62    63    1
    87     2     5    1
    88     2     3    1
    89    61    55   am
    90    21    20    2
    91    20    22   am
    92    81    84    1
    93    81    80    1
    94     7     8    1
    95    12    11    1
    96    12    13    2
    97     4     3    2
    98    63    64    2
    99    63    69   am
   100    17    15   ar
   101    55    54    1
   102    55    56    2
   103    69    70    1
   104    22    23    1
   105    11    10    1
   106    11    14    1
   107     8     9    1
   108    54    53    1
   109    54    57    1
   110    60    58   ar
   111    59    58   ar
   112    58    57    1
   113    73    70    1
   114    70    71    1
   115    15    14    1
   116    15    16   ar
   117    23    24    1
   118    23    26    1
   119    52    50   ar
   120    28    24   am
   121    28    29    1
   122    24    25    2
   123    29    30    1
   124    26    27    1
   125    50    51   ar
   126    50    49    1
   127    71    72    2
   128    79    78    1
   129    49    46    1
   130    30    31    2
   131    30    32   am
   132    78    75    1
   133    40    39    1
   134    32    33    1
   135    46    45    1
   136    46    47    1
   137    45    43   am
   138    74    75    1
   139    75    76    1
   140    39    38    1
   141    41    42    1
   142    37    38    1
   143    37    36    1
   144    33    36    1
   145    33    34    1
   146    76    77    2
   147    47    48    2
   148    43    42    1
   149    43    44    2
   150    34    35    2
