@<TRIPOS>MOLECULE
tmp/2hvcA00.pdb
 189 177 0 0 0
SMALL
GASTEIGER

@<TRIPOS>ATOM
      1  N         -3.2540   32.1580   -3.1520 N.3    33  LEU33      -0.1245
      2  CA        -3.4640   32.4550   -1.7390 C.3    33  LEU33       0.1561
      3  C         -4.6450   31.7170   -1.1230 C.2    33  LEU33       0.2260
      4  O         -4.6330   31.4240    0.0730 O.2    33  LEU33      -0.2867
      5  CB        -3.6160   33.9600   -1.5170 C.3    33  LEU33       0.0270
      6  CG        -2.3040   34.6950   -1.1980 C.3    33  LEU33       0.0019
      7  CD1       -1.7580   34.2120    0.1450 C.3    33  LEU33       0.0001
      8  CD2       -1.2840   34.4500   -2.3130 C.3    33  LEU33       0.0001
      9  N         -3.2840   28.3100   -0.4270 N.3    36  LEU36      -0.1231
     10  CA        -2.3830   28.3610    0.7210 C.3    36  LEU36       0.1693
     11  C         -3.1880   28.3620    2.0190 C.2    36  LEU36       0.2592
     12  O         -2.8620   27.6490    2.9680 O.2    36  LEU36      -0.2718
     13  CB        -1.5140   29.6150    0.6730 C.3    36  LEU36       0.0284
     14  CG        -0.1700   29.5260   -0.0540 C.3    36  LEU36       0.0019
     15  CD1        0.5630   30.8540    0.0610 C.3    36  LEU36       0.0001
     16  CD2        0.6730   28.4110    0.5680 C.3    36  LEU36       0.0001
     17  N         -4.2460   29.1670    2.0540 N.am   37  ASN37      -0.1974
     18  CA        -5.0770   29.2530    3.2480 C.3    37  ASN37       0.1688
     19  C         -5.7450   27.9210    3.5640 C.2    37  ASN37       0.2292
     20  O         -5.8620   27.5510    4.7340 O.2    37  ASN37      -0.2864
     21  CB        -6.1390   30.3440    3.0890 C.3    37  ASN37       0.1181
     22  CG        -5.5330   31.7270    2.9710 C.2    37  ASN37       0.2629
     23  OD1       -4.3600   31.9270    3.2800 O.2    37  ASN37      -0.2716
     24  ND2       -6.3340   32.6950    2.5380 N.am   37  ASN37      -0.0877
     25  N         -4.5570   25.0240    2.6240 N.3    39  LEU39      -0.1231
     26  CA        -3.4730   24.1450    3.0700 C.3    39  LEU39       0.1693
     27  C         -3.2300   24.4610    4.5440 C.2    39  LEU39       0.2592
     28  O         -3.0170   23.5630    5.3680 O.2    39  LEU39      -0.2718
     29  CB        -2.1930   24.4170    2.2720 C.3    39  LEU39       0.0284
     30  CG        -0.9350   23.6690    2.7220 C.3    39  LEU39       0.0019
     31  CD1       -1.1630   22.1670    2.6390 C.3    39  LEU39       0.0001
     32  CD2        0.2510   24.0720    1.8300 C.3    39  LEU39       0.0001
     33  N         -3.2580   25.7470    4.8650 N.am   40  GLY40      -0.1957
     34  CA        -3.0680   26.1610    6.2410 C.3    40  GLY40       0.1869
     35  C         -4.0230   25.4400    7.1730 C.2    40  GLY40       0.2309
     36  O         -3.5960   24.8450    8.1540 O.2    40  GLY40      -0.2863
     37  N         -3.1670   21.6980    7.5710 N.3    43  GLN43      -0.1245
     38  CA        -1.9380   21.5060    8.3330 C.3    43  GLN43       0.1566
     39  C         -2.1190   21.7960    9.8270 C.2    43  GLN43       0.2260
     40  O         -1.5350   21.1160   10.6700 O.2    43  GLN43      -0.2867
     41  CB        -0.8250   22.3800    7.7620 C.3    43  GLN43       0.0367
     42  CG        -0.3600   21.9540    6.3770 C.3    43  GLN43       0.0905
     43  CD         0.5950   22.9520    5.7690 C.2    43  GLN43       0.2608
     44  OE1        0.3100   24.1480    5.7480 O.2    43  GLN43      -0.2717
     45  NE2        1.7310   22.4730    5.2660 N.am   43  GLN43      -0.0878
     46  N          2.5670   28.4160   15.3510 N.3    73  TRP73      -0.1227
     47  CA         2.1210   27.7840   14.1150 C.3    73  TRP73       0.1737
     48  C          2.8420   28.2290   12.8460 C.2    73  TRP73       0.2595
     49  O          3.4070   27.4060   12.1360 O.2    73  TRP73      -0.2718
     50  CB         0.6240   27.9970   13.9050 C.3    73  TRP73       0.0564
     51  CG         0.1160   27.1900   12.7600 C.ar   73  TRP73       0.0003
     52  CD1       -0.2220   25.8650   12.7740 C.ar   73  TRP73       0.0946
     53  CD2       -0.0390   27.6280   11.4050 C.ar   73  TRP73       0.0152
     54  NE1       -0.5790   25.4510   11.5120 N.ar   73  TRP73      -0.2442
     55  CE2       -0.4760   26.5120   10.6520 C.ar   73  TRP73       0.0810
     56  CE3        0.1500   28.8550   10.7520 C.ar   73  TRP73       0.0012
     57  CZ2       -0.7270   26.5870    9.2800 C.ar   73  TRP73       0.0191
     58  CZ3       -0.1000   28.9300    9.3870 C.ar   73  TRP73       0.0001
     59  CH2       -0.5350   27.8000    8.6660 C.ar   73  TRP73       0.0015
     60  N          2.7960   29.5220   12.5510 N.am   74  MET74      -0.1979
     61  CA         3.4330   30.0530   11.3510 C.3    74  MET74       0.1605
     62  C          4.8960   29.6420   11.2340 C.2    74  MET74       0.2287
     63  O          5.3260   29.1710   10.1800 O.2    74  MET74      -0.2864
     64  CB         3.3260   31.5830   11.3230 C.3    74  MET74       0.0413
     65  CG         3.7090   32.2200    9.9880 C.3    74  MET74       0.0598
     66  SD         2.6760   31.6480    8.6100 S.3    74  MET74      -0.1393
     67  CE         1.2680   32.6360    8.7900 C.3    74  MET74       0.0692
     68  N          5.3510   26.0390   10.3150 N.3    77  MET77      -0.1230
     69  CA         5.0640   25.8310    8.9000 C.3    77  MET77       0.1702
     70  C          6.2530   26.2710    8.0510 C.2    77  MET77       0.2592
     71  O          6.6460   25.5780    7.1190 O.2    77  MET77      -0.2718
     72  CB         3.8160   26.6150    8.4890 C.3    77  MET77       0.0401
     73  CG         2.5370   26.0850    9.1070 C.3    77  MET77       0.0596
     74  SD         2.2160   24.3770    8.6170 S.3    77  MET77      -0.1393
     75  CE         2.9500   23.4710    9.9240 C.3    77  MET77       0.0692
     76  N          6.8160   27.4280    8.3850 N.am   78  VAL78      -0.1980
     77  CA         7.9750   27.9570    7.6730 C.3    78  VAL78       0.1595
     78  C          9.1100   26.9380    7.6770 C.2    78  VAL78       0.2287
     79  O          9.6280   26.5550    6.6280 O.2    78  VAL78      -0.2864
     80  CB         8.5050   29.2530    8.3390 C.3    78  VAL78       0.0276
     81  CG1        9.8790   29.5970    7.7950 C.3    78  VAL78       0.0022
     82  CG2        7.5610   30.4000    8.0810 C.3    78  VAL78       0.0022
     83  N          8.2950   23.4830    5.9310 N.3    81  MET81      -0.1245
     84  CA         8.1820   23.6680    4.4880 C.3    81  MET81       0.1570
     85  C          9.5920   23.7960    3.9110 C.2    81  MET81       0.2261
     86  O          9.8900   23.2600    2.8450 O.2    81  MET81      -0.2867
     87  CB         7.3310   24.9140    4.1900 C.3    81  MET81       0.0387
     88  CG         7.1160   25.2130    2.7140 C.3    81  MET81       0.0595
     89  SD         8.5150   26.0630    1.9410 S.3    81  MET81      -0.1393
     90  CE         8.1440   27.7600    2.3640 C.3    81  MET81       0.0692
     91  N         11.0490   20.4250    3.7490 N.3    84  ARG84      -0.1245
     92  CA        10.4300   19.6790    2.6500 C.3    84  ARG84       0.1563
     93  C         11.0440   20.1100    1.3220 C.2    84  ARG84       0.2260
     94  O         11.3510   19.2780    0.4680 O.2    84  ARG84      -0.2867
     95  CB         8.9100   19.9140    2.5800 C.3    84  ARG84       0.0307
     96  CG         8.0740   19.1690    3.6010 C.3    84  ARG84       0.0489
     97  CD         6.6050   19.1020    3.1650 C.3    84  ARG84       0.2205
     98  NE         5.9870   20.4220    3.0530 N.pl3  84  ARG84      -0.0865
     99  CZ         5.6500   21.1760    4.0930 C.cat  84  ARG84       0.5346
    100  NH1        5.8710   20.7410    5.3280 N.pl3  84  ARG84       0.1354
    101  NH2        5.0920   22.3650    3.9020 N.pl3  84  ARG84       0.1354
    102  N          5.4100   23.7740   -0.6410 N.3    96  PHE96      -0.1241
    103  CA         4.3580   23.9060    0.3630 C.3    96  PHE96       0.1605
    104  C          3.6530   22.5710    0.4760 C.2    96  PHE96       0.2264
    105  O          3.3460   22.0980    1.5640 O.2    96  PHE96      -0.2867
    106  CB         3.3520   24.9780   -0.0580 C.3    96  PHE96       0.0534
    107  CG         3.9010   26.3670   -0.0130 C.ar   96  PHE96      -0.0203
    108  CD1        3.9950   27.0520    1.1990 C.ar   96  PHE96      -0.0042
    109  CD2        4.3560   26.9860   -1.1750 C.ar   96  PHE96      -0.0042
    110  CE1        4.5360   28.3350    1.2530 C.ar   96  PHE96      -0.0003
    111  CE2        4.8990   28.2710   -1.1310 C.ar   96  PHE96      -0.0003
    112  CZ         4.9880   28.9450    0.0880 C.ar   96  PHE96      -0.0000
    113  N          4.3680   38.1900   -2.4720 N.3   112  MET112     -0.1245
    114  CA         5.2190   37.9710   -1.3050 C.3   112  MET112      0.1570
    115  C          6.5610   37.4850   -1.8230 C.2   112  MET112      0.2261
    116  O          7.2000   36.6270   -1.2010 O.2   112  MET112     -0.2867
    117  CB         4.6760   36.8530   -0.4320 C.3   112  MET112      0.0387
    118  CG         3.5670   37.2010    0.4840 C.3   112  MET112      0.0595
    119  SD         3.5420   35.8630    1.6480 S.3   112  MET112     -0.1393
    120  CE         2.9420   34.5110    0.5820 C.3   112  MET112      0.0692
    121  N         12.5580   32.6090    2.4320 N.3   119  MET119     -0.1245
    122  CA        12.2230   31.2370    2.8020 C.3   119  MET119      0.1570
    123  C         13.1010   30.2400    2.0560 C.2   119  MET119      0.2261
    124  O         13.4990   29.2210    2.6130 O.2   119  MET119     -0.2867
    125  CB        10.7400   30.9570    2.5420 C.3   119  MET119      0.0387
    126  CG         9.8210   31.7790    3.4420 C.3   119  MET119      0.0595
    127  SD         8.1090   31.2170    3.5190 S.3   119  MET119     -0.1393
    128  CE         7.3330   32.3000    2.3960 C.3   119  MET119      0.0692
    129  N          5.1870   37.0410    7.6510 N.3   205  LEU205     -0.1245
    130  CA         4.0790   36.2330    7.1700 C.3   205  LEU205      0.1561
    131  C          2.8510   36.5580    8.0270 C.2   205  LEU205      0.2260
    132  O          1.7370   36.5950    7.5260 O.2   205  LEU205     -0.2867
    133  CB         4.4490   34.7480    7.2440 C.3   205  LEU205      0.0270
    134  CG         5.4410   34.3250    6.1490 C.3   205  LEU205      0.0019
    135  CD1        6.1000   33.0190    6.4900 C.3   205  LEU205      0.0001
    136  CD2        4.7070   34.1920    4.8370 C.3   205  LEU205      0.0001
    137  N          1.6850   39.9040    6.7280 N.3   208  PHE208     -0.1227
    138  CA         1.1100   39.7150    5.3980 C.3   208  PHE208      0.1736
    139  C         -0.2800   39.0820    5.4000 C.2   208  PHE208      0.2596
    140  O         -1.1950   39.6180    4.7740 O.2   208  PHE208     -0.2718
    141  CB         2.0640   38.8940    4.5080 C.3   208  PHE208      0.0547
    142  CG         1.4650   38.4860    3.1830 C.ar  208  PHE208     -0.0202
    143  CD1        0.8310   37.2530    3.0450 C.ar  208  PHE208     -0.0042
    144  CD2        1.5280   39.3340    2.0760 C.ar  208  PHE208     -0.0042
    145  CE1        0.2660   36.8680    1.8260 C.ar  208  PHE208     -0.0003
    146  CE2        0.9630   38.9580    0.8460 C.ar  208  PHE208     -0.0003
    147  CZ         0.3310   37.7240    0.7230 C.ar  208  PHE208     -0.0000
    148  N         -0.4640   37.9590    6.0960 N.am  209  THR209     -0.1953
    149  CA        -1.7900   37.3400    6.0890 C.3   209  THR209      0.1897
    150  C         -2.8200   38.0750    6.9500 C.2   209  THR209      0.2313
    151  O         -4.0130   37.9510    6.6960 O.2   209  THR209     -0.2863
    152  CB        -1.7560   35.8190    6.4520 C.3   209  THR209      0.1794
    153  OG1       -2.6090   35.5500    7.5710 O.3   209  THR209     -0.2208
    154  CG2       -0.3730   35.3730    6.7420 C.3   209  THR209      0.0378
    155  N         -3.9660   40.6430    4.6150 N.3   212  LEU212     -0.1245
    156  CA        -4.7600   39.9980    3.5840 C.3   212  LEU212      0.1561
    157  C         -6.1510   39.6470    4.0950 C.2   212  LEU212      0.2260
    158  O         -7.1320   39.7840    3.3660 O.2   212  LEU212     -0.2867
    159  CB        -4.0580   38.7340    3.0720 C.3   212  LEU212      0.0270
    160  CG        -4.8290   37.9440    2.0030 C.3   212  LEU212      0.0019
    161  CD1       -5.1620   38.8620    0.8250 C.3   212  LEU212      0.0001
    162  CD2       -4.0050   36.7590    1.5290 C.3   212  LEU212      0.0001
    163  N        -10.6820   32.7720    3.4590 N.3   223  PHE223     -0.1241
    164  CA       -10.0640   32.1430    4.6220 C.3   223  PHE223      0.1605
    165  C        -11.0100   31.1680    5.3230 C.2   223  PHE223      0.2264
    166  O        -12.1630   31.5050    5.6010 O.2   223  PHE223     -0.2867
    167  CB        -9.6480   33.2140    5.6480 C.3   223  PHE223      0.0534
    168  CG        -8.4540   34.0410    5.2380 C.ar  223  PHE223     -0.0203
    169  CD1       -8.5680   35.0550    4.2870 C.ar  223  PHE223     -0.0042
    170  CD2       -7.2080   33.8030    5.8140 C.ar  223  PHE223     -0.0042
    171  CE1       -7.4520   35.8240    3.9140 C.ar  223  PHE223     -0.0003
    172  CE2       -6.0900   34.5600    5.4500 C.ar  223  PHE223     -0.0003
    173  CZ        -6.2100   35.5710    4.5010 C.ar  223  PHE223     -0.0000
    174  N         -8.4650   29.3920   10.3620 N.3   227  MET227     -0.1245
    175  CA        -7.4330   30.3490    9.9740 C.3   227  MET227      0.1570
    176  C         -7.9130   31.7530   10.3290 C.2   227  MET227      0.2261
    177  O         -7.1890   32.5310   10.9400 O.2   227  MET227     -0.2867
    178  CB        -7.1560   30.2700    8.4660 C.3   227  MET227      0.0387
    179  CG        -6.0740   29.2730    8.0430 C.3   227  MET227      0.0595
    180  SD        -5.7150   28.0000    9.2580 S.3   227  MET227     -0.1393
    181  CE        -4.0440   28.3800    9.6860 C.3   227  MET227      0.0692
    182  N         -5.9660   34.1430   12.8990 N.3   231  ILE231     -0.1245
    183  CA        -5.4520   35.3760   12.2990 C.3   231  ILE231      0.1561
    184  C         -6.0130   36.6390   12.9700 C.2   231  ILE231      0.2260
    185  O         -5.3140   37.6430   13.1120 O.2   231  ILE231     -0.2867
    186  CB        -5.7800   35.4610   10.7810 C.3   231  ILE231      0.0252
    187  CG1       -5.2210   34.2430   10.0290 C.3   231  ILE231      0.0019
    188  CG2       -5.1850   36.7430   10.1920 C.3   231  ILE231      0.0019
    189  CD1       -3.7220   34.1990    9.9350 C.3   231  ILE231      0.0001
@<TRIPOS>BOND
     1     1     2    1
     2   113   114    1
     3     8     6    1
     4   115   114    1
     5   115   116    2
     6     2     5    1
     7     2     3    1
     8     5     6    1
     9   114   117    1
    10     6     7    1
    11   109   111   ar
    12   109   107   ar
    13   111   112   ar
    14     3     4    2
    15   102   103    1
    16   117   118    1
    17     9    10    1
    18   106   107    1
    19   106   103    1
    20    14    15    1
    21    14    16    1
    22    14    13    1
    23   107   108   ar
    24   112   110   ar
    25   103   104    1
    26    94    93    2
    27   104   105    2
    28   118   119    1
    29   120   119    1
    30    13    10    1
    31    10    11    1
    32   147   146   ar
    33   147   145   ar
    34   161   160    1
    35   146   144   ar
    36   108   110   ar
    37    93    92    1
    38   162   160    1
    39   145   143   ar
    40    32    30    1
    41    89    90    1
    42    89    88    1
    43   160   159    1
    44    11    17   am
    45    11    12    2
    46    17    18    1
    47   123   124    2
    48   123   122    1
    49   144   142   ar
    50    29    30    1
    51    29    26    1
    52   128   127    1
    53   121   122    1
    54    24    22   am
    55   125   122    1
    56   125   126    1
    57    95    92    1
    58    95    96    1
    59    25    26    1
    60    31    30    1
    61    92    91    1
    62    88    87    1
    63    86    85    2
    64    22    21    1
    65    22    23    2
    66   143   142   ar
    67    98    97    1
    68    98    99    2
    69    26    27    1
    70   159   156    1
    71    21    18    1
    72    97    96    1
    73   142   141    1
    74    18    19    1
    75   158   157    2
    76   126   127    1
    77   163   164    1
    78    19    20    2
    79   156   157    1
    80   156   155    1
    81   101    99    1
    82    85    84    1
    83   171   169   ar
    84   171   173   ar
    85    99   100    1
    86    87    84    1
    87   169   168   ar
    88    84    83    1
    89   173   172   ar
    90   141   138    1
    91    27    33   am
    92    27    28    2
    93   164   165    1
    94   164   167    1
    95   140   139    2
    96   136   134    1
    97    33    34    1
    98   168   167    1
    99   168   170   ar
   100    45    43   am
   101   165   166    2
   102   138   139    1
   103   138   137    1
   104   139   148   am
   105   172   170   ar
   106    44    43    2
   107    43    42    1
   108   149   148    1
   109   149   152    1
   110   149   150    1
   111   134   135    1
   112   134   133    1
   113    34    35    1
   114    42    41    1
   115   152   154    1
   116   152   153    1
   117    79    78    2
   118   151   150    2
   119    71    70    2
   120   130   133    1
   121   130   129    1
   122   130   131    1
   123    35    36    2
   124   132   131    2
   125    37    38    1
   126    77    78    1
   127    77    80    1
   128    77    76    1
   129    41    38    1
   130    81    80    1
   131   179   178    1
   132   179   180    1
   133    70    76   am
   134    70    69    1
   135    82    80    1
   136    38    39    1
   137   178   175    1
   138    72    69    1
   139    72    73    1
   140    66    67    1
   141    66    65    1
   142    74    73    1
   143    74    75    1
   144    59    57   ar
   145    59    58   ar
   146    69    68    1
   147   180   181    1
   148    57    55   ar
   149    58    56   ar
   150    39    40    2
   151   189   187    1
   152   175   176    1
   153   175   174    1
   154    65    64    1
   155   187   186    1
   156    63    62    2
   157   188   186    1
   158   176   177    2
   159    55    53   ar
   160    55    54   ar
   161    56    53   ar
   162   186   183    1
   163    62    61    1
   164    64    61    1
   165    61    60    1
   166    53    51   ar
   167    54    52   ar
   168    49    48    2
   169   183   182    1
   170   183   184    1
   171    60    48   am
   172    51    52   ar
   173    51    50    1
   174    48    47    1
   175   184   185    2
   176    50    47    1
   177    47    46    1
