@<TRIPOS>MOLECULE
tmp/2hveC00.pdb
 158 148 0 0 0
SMALL
GASTEIGER

@<TRIPOS>ATOM
      1  N         21.9110  100.3650    1.3200 N.3    11  LYS11      -0.1245
      2  CA        21.7360  101.4300    0.3300 C.3    11  LYS11       0.1561
      3  C         21.8600  102.8350    0.9690 C.2    11  LYS11       0.2260
      4  O         21.8540  102.9590    2.1970 O.2    11  LYS11      -0.2867
      5  CB        20.3790  101.2510   -0.3610 C.3    11  LYS11       0.0271
      6  CG        20.2290   99.9020   -1.0490 C.3    11  LYS11       0.0035
      7  CD        18.8970   99.7930   -1.8030 C.3    11  LYS11       0.0206
      8  CE        18.8130   98.5010   -2.6040 C.3    11  LYS11       0.1093
      9  NZ        17.4730   98.3060   -3.2230 N.3    11  LYS11      -0.1314
     10  N         23.4050   95.5640  -11.4140 N.3    51  TYR51      -0.1241
     11  CA        21.9890   95.5260  -11.7820 C.3    51  TYR51       0.1605
     12  C         21.7690   95.1420  -13.2570 C.2    51  TYR51       0.2264
     13  O         20.7070   95.4220  -13.8200 O.2    51  TYR51      -0.2867
     14  CB        21.3470   96.8930  -11.5230 C.3    51  TYR51       0.0534
     15  CG        21.0790   97.2260  -10.0690 C.ar   51  TYR51      -0.0201
     16  CD1       20.1860   96.4720   -9.3120 C.ar   51  TYR51      -0.0009
     17  CD2       21.6770   98.3290   -9.4680 C.ar   51  TYR51      -0.0009
     18  CE1       19.9230   96.7920   -7.9840 C.ar   51  TYR51       0.0417
     19  CE2       21.4210   98.6550   -8.1470 C.ar   51  TYR51       0.0417
     20  CZ        20.5450   97.8870   -7.4070 C.ar   51  TYR51       0.1957
     21  OH        20.2940   98.2160   -6.0930 O.3    51  TYR51      -0.2866
     22  N         18.4350   93.9620  -15.0120 N.3    54  LEU54      -0.1245
     23  CA        17.2570   94.8430  -14.9460 C.3    54  LEU54       0.1561
     24  C         17.4100   96.0900  -15.8270 C.2    54  LEU54       0.2260
     25  O         16.7940   97.1270  -15.5640 O.2    54  LEU54      -0.2867
     26  CB        16.9940   95.2670  -13.4960 C.3    54  LEU54       0.0270
     27  CG        16.8300   94.1490  -12.4630 C.3    54  LEU54       0.0019
     28  CD1       16.7730   94.7450  -11.0720 C.3    54  LEU54       0.0001
     29  CD2       15.5890   93.3040  -12.7340 C.3    54  LEU54       0.0001
     30  N         14.1050   97.1480  -17.7840 N.3    57  ARG57      -0.1245
     31  CA        13.0020   97.6950  -16.9650 C.3    57  ARG57       0.1563
     32  C         13.0190   99.2310  -16.8170 C.2    57  ARG57       0.2260
     33  O         14.0670   99.8640  -16.9780 O.2    57  ARG57      -0.2867
     34  CB        12.9330   96.9910  -15.5950 C.3    57  ARG57       0.0307
     35  CG        11.9860   95.7840  -15.6120 C.3    57  ARG57       0.0489
     36  CD        11.9710   94.9950  -14.3070 C.3    57  ARG57       0.2205
     37  NE        11.0130   93.8850  -14.3650 N.pl3  57  ARG57      -0.0865
     38  CZ        11.0310   92.8070  -13.5770 C.cat  57  ARG57       0.5346
     39  NH1       10.1070   91.8620  -13.7310 N.pl3  57  ARG57       0.1354
     40  NH2       11.9670   92.6540  -12.6410 N.pl3  57  ARG57       0.1354
     41  N         12.5710  101.3820  -14.2900 N.3    59  PHE59      -0.1241
     42  CA        13.1250  102.0520  -13.1060 C.3    59  PHE59       0.1605
     43  C         14.6620  102.0010  -13.0440 C.2    59  PHE59       0.2264
     44  O         15.2600  102.5240  -12.1020 O.2    59  PHE59      -0.2867
     45  CB        12.4870  101.5220  -11.8040 C.3    59  PHE59       0.0534
     46  CG        12.6750  100.0410  -11.5710 C.ar   59  PHE59      -0.0203
     47  CD1       13.8310   99.5540  -10.9640 C.ar   59  PHE59      -0.0042
     48  CD2       11.6770   99.1370  -11.9290 C.ar   59  PHE59      -0.0042
     49  CE1       13.9990   98.1900  -10.7370 C.ar   59  PHE59      -0.0003
     50  CE2       11.8360   97.7730  -11.7060 C.ar   59  PHE59      -0.0003
     51  CZ        12.9990   97.2980  -11.1110 C.ar   59  PHE59      -0.0000
     52  N         17.3250  104.2390  -10.8090 N.3    63  LEU63      -0.1245
     53  CA        17.9870  103.3020   -9.9000 C.3    63  LEU63       0.1561
     54  C         19.4820  103.6030   -9.7480 C.2    63  LEU63       0.2260
     55  O         19.9440  103.9210   -8.6560 O.2    63  LEU63      -0.2867
     56  CB        17.7790  101.8600  -10.3810 C.3    63  LEU63       0.0270
     57  CG        18.4430  100.7300   -9.5910 C.3    63  LEU63       0.0019
     58  CD1       17.9110  100.6710   -8.1660 C.3    63  LEU63       0.0001
     59  CD2       18.2180   99.4020  -10.3030 C.3    63  LEU63       0.0001
     60  N         20.3160  106.9850   -8.1190 N.3    66  TYR66      -0.1241
     61  CA        20.0180  106.9940   -6.6780 C.3    66  TYR66       0.1605
     62  C         21.0310  106.1670   -5.8750 C.2    66  TYR66       0.2264
     63  O         21.4260  106.5580   -4.7720 O.2    66  TYR66      -0.2867
     64  CB        18.5770  106.5160   -6.4230 C.3    66  TYR66       0.0534
     65  CG        18.3760  105.6390   -5.1980 C.ar   66  TYR66      -0.0201
     66  CD1       18.2550  104.2570   -5.3330 C.ar   66  TYR66      -0.0009
     67  CD2       18.2850  106.1870   -3.9110 C.ar   66  TYR66      -0.0009
     68  CE1       18.0620  103.4340   -4.2310 C.ar   66  TYR66       0.0417
     69  CE2       18.0920  105.3700   -2.7930 C.ar   66  TYR66       0.0417
     70  CZ        17.9790  103.9890   -2.9650 C.ar   66  TYR66       0.1957
     71  OH        17.7810  103.1430   -1.8940 O.3    66  TYR66      -0.2866
     72  N         17.7730   86.8450    3.0680 N.3    87  ARG87      -0.1245
     73  CA        16.6640   87.4570    2.3330 C.3    87  ARG87       0.1563
     74  C         15.3640   87.5050    3.1350 C.2    87  ARG87       0.2260
     75  O         14.6060   88.4650    3.0040 O.2    87  ARG87      -0.2867
     76  CB        16.4640   86.7780    0.9750 C.3    87  ARG87       0.0307
     77  CG        17.4950   87.2470   -0.0470 C.3    87  ARG87       0.0489
     78  CD        17.1400   86.8690   -1.4580 C.3    87  ARG87       0.2205
     79  NE        15.9470   87.5610   -1.9520 N.pl3  87  ARG87      -0.0865
     80  CZ        15.9370   88.5930   -2.7910 C.cat  87  ARG87       0.5346
     81  NH1       17.0660   89.1070   -3.2700 N.pl3  87  ARG87       0.1354
     82  NH2       14.7740   89.1210   -3.1470 N.pl3  87  ARG87       0.1354
     83  N         11.1640   92.3030   -1.1420 N.3    93  THR93      -0.1218
     84  CA        11.6590   93.4730   -1.9060 C.3    93  THR93       0.1862
     85  C         10.8150   94.7380   -1.7390 C.2    93  THR93       0.2287
     86  O         11.3530   95.8300   -1.5050 O.2    93  THR93      -0.2866
     87  CB        11.7330   93.1530   -3.4210 C.3    93  THR93       0.1770
     88  OG1       12.6840   92.1060   -3.6420 O.3    93  THR93      -0.2211
     89  CG2       12.1550   94.3680   -4.2360 C.3    93  THR93       0.0375
     90  N         13.1560   95.5230    6.2660 N.3   104  ARG104     -0.1245
     91  CA        12.3070   96.3900    5.4410 C.3   104  ARG104      0.1563
     92  C         10.9520   96.6430    6.0880 C.2   104  ARG104      0.2260
     93  O         10.4080   97.7390    5.9970 O.2   104  ARG104     -0.2867
     94  CB        12.0930   95.7770    4.0570 C.3   104  ARG104      0.0307
     95  CG        13.3310   95.7690    3.1950 C.3   104  ARG104      0.0489
     96  CD        13.0080   95.3350    1.7870 C.3   104  ARG104      0.2205
     97  NE        14.1710   95.3620    0.9110 N.pl3 104  ARG104     -0.0865
     98  CZ        14.7660   94.2960    0.3850 C.cat 104  ARG104      0.5346
     99  NH1       14.3410   93.0670    0.6470 N.pl3 104  ARG104      0.1354
    100  NH2       15.8160   94.4570   -0.4100 N.pl3 104  ARG104      0.1354
    101  N          8.6030  102.5810    0.8800 N.3   110  GLN110     -0.1231
    102  CA         8.4650  102.4190   -0.5880 C.3   110  GLN110      0.1698
    103  C          9.6300  101.6730   -1.2410 C.2   110  GLN110      0.2592
    104  O         10.7760  101.9170   -0.8990 O.2   110  GLN110     -0.2718
    105  CB         8.2970  103.7940   -1.2610 C.3   110  GLN110      0.0381
    106  CG         8.9200  103.8810   -2.6550 C.3   110  GLN110      0.0905
    107  CD         8.5810  105.1460   -3.4000 C.2   110  GLN110      0.2608
    108  OE1        8.7110  106.2520   -2.8740 O.2   110  GLN110     -0.2717
    109  NE2        8.1590  104.9890   -4.6570 N.am  110  GLN110     -0.0878
    110  N          9.3190  100.8200   -2.2230 N.am  111  VAL111     -0.1966
    111  CA        10.3060   99.9600   -2.9290 C.3   111  VAL111      0.1727
    112  C         11.5370  100.6850   -3.5310 C.2   111  VAL111      0.2616
    113  O         12.6430  100.1220   -3.5930 O.2   111  VAL111     -0.2715
    114  CB         9.6050   99.1240   -4.0470 C.3   111  VAL111      0.0290
    115  CG1        9.0060  100.0310   -5.1290 C.3   111  VAL111      0.0023
    116  CG2       10.5470   98.0930   -4.6610 C.3   111  VAL111      0.0023
    117  N         11.3370  101.9140   -3.9950 N.am  112  GLY112     -0.1955
    118  CA        12.4310  102.7410   -4.5040 C.3   112  GLY112      0.1869
    119  C         13.3950  103.1840   -3.4170 C.2   112  GLY112      0.2309
    120  O         14.5560  103.5050   -3.6990 O.2   112  GLY112     -0.2863
    121  N         14.0440  101.1290   -0.4480 N.3   114  ASN114     -0.1240
    122  CA        13.9420   99.8970    0.3400 C.3   114  ASN114      0.1653
    123  C         15.2240   99.5340    1.1480 C.2   114  ASN114      0.2266
    124  O         15.4590   98.3630    1.4610 O.2   114  ASN114     -0.2867
    125  CB        13.4710   98.7330   -0.5630 C.3   114  ASN114      0.1155
    126  CG        14.5480   98.2350   -1.5240 C.2   114  ASN114      0.2627
    127  OD1       15.6130   98.8480   -1.6760 O.2   114  ASN114     -0.2716
    128  ND2       14.2710   97.1040   -2.1780 N.am  114  ASN114     -0.0877
    129  N         18.0900   98.3840    1.6110 N.3   116  ILE116     -0.1231
    130  CA        19.0230   97.2650    1.6500 C.3   116  ILE116      0.1692
    131  C         18.8570   96.3290    0.4520 C.2   116  ILE116      0.2592
    132  O         17.7890   96.2630   -0.1550 O.2   116  ILE116     -0.2718
    133  CB        18.8520   96.4690    2.9890 C.3   116  ILE116      0.0266
    134  CG1       20.0020   95.4810    3.2100 C.3   116  ILE116      0.0019
    135  CG2       17.4950   95.7610    3.0490 C.3   116  ILE116      0.0020
    136  CD1       20.1700   95.0750    4.6470 C.3   116  ILE116      0.0001
    137  N         19.9360   95.6220    0.1200 N.am  117  HIS117     -0.1962
    138  CA        19.9440   94.5860   -0.9030 C.3   117  HIS117      0.1787
    139  C         20.6190   93.3420   -0.3470 C.2   117  HIS117      0.2620
    140  O         21.6020   93.4420    0.3700 O.2   117  HIS117     -0.2715
    141  CB        20.7190   95.0450   -2.1490 C.3   117  HIS117      0.0785
    142  CG        21.2260   93.9150   -2.9940 C.ar  117  HIS117      0.0821
    143  ND1       20.4420   93.2690   -3.9270 N.ar  117  HIS117     -0.2267
    144  CD2       22.4250   93.2830   -3.0130 C.ar  117  HIS117      0.1154
    145  CE1       21.1410   92.3040   -4.4970 C.ar  117  HIS117      0.1986
    146  NE2       22.3480   92.2900   -3.9620 N.ar  117  HIS117     -0.2212
    147  N         20.0940   92.1750   -0.7080 N.am  118  GLY118     -0.1954
    148  CA        20.7270   90.8940   -0.4240 C.3   118  GLY118      0.1869
    149  C         20.6770   90.0250   -1.6640 C.2   118  GLY118      0.2309
    150  O         19.7300   90.1010   -2.4470 O.2   118  GLY118     -0.2863
    151  N         20.0570   87.0880   -4.2240 N.3   120  ASP120     -0.1239
    152  CA        18.8720   86.2240   -4.4190 C.3   120  ASP120      0.1674
    153  C         19.1950   84.7390   -4.6030 C.2   120  ASP120      0.2266
    154  O         18.3030   83.8980   -4.5150 O.2   120  ASP120     -0.2867
    155  CB        17.9910   86.7260   -5.5770 C.3   120  ASP120      0.1410
    156  CG        18.7060   86.7160   -6.9380 C.2   120  ASP120      0.3668
    157  OD1       18.1860   87.3670   -7.8720 O.co2 120  ASP120     -0.2456
    158  OD2       19.7760   86.0780   -7.0810 O.co2 120  ASP120     -0.2456
@<TRIPOS>BOND
     1    30    31    1
     2    33    32    2
     3    31    32    1
     4    31    34    1
     5    24    25    2
     6    24    23    1
     7    35    34    1
     8    35    36    1
     9    22    23    1
    10    23    26    1
    11    37    36    1
    12    37    38    2
    13    41    42    1
    14    13    12    2
    15    39    38    1
    16    38    40    1
    17    26    27    1
    18    12    11    1
    19    42    43    1
    20    42    45    1
    21    43    44    2
    22    29    27    1
    23    27    28    1
    24    48    50   ar
    25    48    46   ar
    26    45    46    1
    27    11    14    1
    28    11    10    1
    29    50    51   ar
    30    46    47   ar
    31    14    15    1
    32    51    49   ar
    33    47    49   ar
    34    52    53    1
    35    56    53    1
    36    56    57    1
    37    59    57    1
    38    15    17   ar
    39    15    16   ar
    40    53    54    1
    41    54    55    2
    42    57    58    1
    43    17    19   ar
    44    16    18   ar
    45    19    20   ar
    46    60    61    1
    47    18    20   ar
    48   157   156   ar
    49    20    21    1
    50   158   156   ar
    51   156   155    1
    52    61    64    1
    53    61    62    1
    54    64    65    1
    55    62    63    2
    56   155   152    1
    57    66    65   ar
    58    66    68   ar
    59    65    67   ar
    60   115   114    1
    61   116   114    1
    62   109   107   am
    63   153   154    2
    64   153   152    1
    65   118   117    1
    66   118   119    1
    67   145   146   ar
    68   145   143   ar
    69   152   151    1
    70    89    87    1
    71    68    70   ar
    72   114   111    1
    73   117   112   am
    74   146   144   ar
    75   143   142   ar
    76    67    69   ar
    77   120   119    2
    78    88    87    1
    79   113   112    2
    80   112   111    1
    81    87    84    1
    82   107   108    2
    83   107   106    1
    84    81    80    1
    85     9     8    1
    86    82    80    1
    87   144   142   ar
    88   142   141    1
    89    70    69   ar
    90    70    71    1
    91   111   110    1
    92    80    79    2
    93   106   105    1
    94     8     7    1
    95   150   149    2
    96   110   103   am
    97   128   126   am
    98   141   138    1
    99    79    78    1
   100    84    85    1
   101    84    83    1
   102     7     6    1
   103    85    86    2
   104   127   126    2
   105   149   148    1
   106   126   125    1
   107    78    77    1
   108   105   102    1
   109   103   104    2
   110   103   102    1
   111     6     5    1
   112   138   139    1
   113   138   137    1
   114   147   148    1
   115   147   139   am
   116   102   101    1
   117   125   122    1
   118   121   122    1
   119   100    98    1
   120     5     2    1
   121   139   140    2
   122   132   131    2
   123    77    76    1
   124   137   131   am
   125     2     3    1
   126     2     1    1
   127   122   123    1
   128    98    99    1
   129    98    97    2
   130   131   130    1
   131    97    96    1
   132     3     4    2
   133    76    73    1
   134   123   124    2
   135   129   130    1
   136   130   133    1
   137    96    95    1
   138    73    72    1
   139    73    74    1
   140   133   135    1
   141   133   134    1
   142    75    74    2
   143    95    94    1
   144   134   136    1
   145    94    91    1
   146    91    92    1
   147    91    90    1
   148    93    92    2
