@<TRIPOS>MOLECULE
tmp/2hvwA00.pdb
 116 108 0 0 0
SMALL
GASTEIGER

@<TRIPOS>ATOM
      1  N          1.8360   18.1270   40.3330 N.3    16  ILE16      -0.1245
      2  CA         1.6240   17.0170   41.2680 C.3    16  ILE16       0.1561
      3  C          1.9730   17.4260   42.7080 C.2    16  ILE16       0.2260
      4  O          1.3150   16.9920   43.6590 O.2    16  ILE16      -0.2867
      5  CB         2.4170   15.7660   40.7970 C.3    16  ILE16       0.0252
      6  CG1        1.7810   15.1840   39.5260 C.3    16  ILE16       0.0019
      7  CG2        2.5600   14.7090   41.9140 C.3    16  ILE16       0.0019
      8  CD1        0.4110   14.5210   39.7190 C.3    16  ILE16       0.0001
      9  N         -0.4980   19.1850   45.9800 N.3    19  ARG19      -0.1245
     10  CA        -1.2170   18.5870   47.0970 C.3    19  ARG19       0.1563
     11  C         -0.3120   18.1900   48.2720 C.2    19  ARG19       0.2260
     12  O         -0.7860   17.6020   49.2330 O.2    19  ARG19      -0.2867
     13  CB        -2.0930   17.4160   46.6290 C.3    19  ARG19       0.0307
     14  CG        -3.4570   17.8830   46.1160 C.3    19  ARG19       0.0489
     15  CD        -4.3830   16.7140   45.7700 C.3    19  ARG19       0.2205
     16  NE        -4.7470   15.9030   46.9340 N.pl3  19  ARG19      -0.0865
     17  CZ        -5.7060   16.2100   47.8070 C.cat  19  ARG19       0.5346
     18  NH1       -6.4270   17.3240   47.6690 N.pl3  19  ARG19       0.1354
     19  NH2       -5.9500   15.3900   48.8320 N.pl3  19  ARG19       0.1354
     20  N          1.5290   18.0140   51.6930 N.3    21  THR21      -0.1218
     21  CA         1.0180   18.3980   53.0160 C.3    21  THR21       0.1862
     22  C          2.1500   18.5330   54.0450 C.2    21  THR21       0.2287
     23  O          1.9280   18.3990   55.2500 O.2    21  THR21      -0.2866
     24  CB        -0.0610   17.4090   53.5440 C.3    21  THR21       0.1770
     25  OG1        0.5080   16.1020   53.6910 O.3    21  THR21      -0.2211
     26  CG2       -1.2780   17.3660   52.6180 C.3    21  THR21       0.0375
     27  N          2.4510    8.6480   39.8680 N.3    40  THR40      -0.1203
     28  CA         2.8230    9.9700   40.4020 C.3    40  THR40       0.1994
     29  C          2.8210    9.8940   41.9190 C.2    40  THR40       0.2618
     30  O          2.2870    8.9450   42.4950 O.2    40  THR40      -0.2717
     31  CB         1.8370   11.1020   39.9740 C.3    40  THR40       0.1784
     32  OG1        0.5720   10.9590   40.6490 O.3    40  THR40      -0.2211
     33  CG2        1.6060   11.1200   38.4590 C.3    40  THR40       0.0376
     34  N          3.3720   10.9210   42.5590 N.am   41  GLY41      -0.1942
     35  CA         3.3500   11.0000   44.0140 C.3    41  GLY41       0.2014
     36  C          3.7060   12.3790   44.5280 C.2    41  GLY41       0.2638
     37  O          4.4340   13.1240   43.8760 O.2    41  GLY41      -0.2714
     38  N          3.1300   12.7270   45.6780 N.am   42  TYR42      -0.1973
     39  CA         3.5650   13.9060   46.4250 C.3    42  TYR42       0.1639
     40  C          3.9080   13.5040   47.8520 C.2    42  TYR42       0.2290
     41  O          3.5720   12.4070   48.2800 O.2    42  TYR42      -0.2864
     42  CB         2.4920   15.0030   46.4160 C.3    42  TYR42       0.0560
     43  CG         1.1310   14.6320   46.9790 C.ar   42  TYR42      -0.0198
     44  CD1        0.8450   14.7850   48.3570 C.ar   42  TYR42      -0.0009
     45  CD2        0.0870   14.2270   46.1320 C.ar   42  TYR42      -0.0009
     46  CE1       -0.4190   14.4880   48.8730 C.ar   42  TYR42       0.0417
     47  CE2       -1.1850   13.9320   46.6450 C.ar   42  TYR42       0.0417
     48  CZ        -1.4320   14.0740   48.0140 C.ar   42  TYR42       0.1957
     49  OH        -2.6900   13.7920   48.5110 O.3    42  TYR42      -0.2866
     50  N          3.5040   13.3740   51.7420 N.3    44  GLY44      -0.1210
     51  CA         2.4140   13.4980   52.7160 C.3    44  GLY44       0.1956
     52  C          2.5010   12.3300   53.6780 C.2    44  GLY44       0.2612
     53  O          3.2680   11.3970   53.4560 O.2    44  GLY44      -0.2717
     54  N          1.6940   12.3620   54.7370 N.am   45  GLY45      -0.1942
     55  CA         1.6990   11.2660   55.7010 C.3    45  GLY45       0.2014
     56  C          1.2480    9.9610   55.0600 C.2    45  GLY45       0.2639
     57  O          0.7000    9.9470   53.9450 O.2    45  GLY45      -0.2714
     58  N          1.4940    8.8570   55.7540 N.am   46  VAL46      -0.1963
     59  CA         0.9230    7.5790   55.3460 C.3    46  VAL46       0.1727
     60  C         -0.5950    7.7730   55.1450 C.2    46  VAL46       0.2616
     61  O         -1.2500    8.4970   55.9190 O.2    46  VAL46      -0.2715
     62  CB         1.2170    6.4660   56.3920 C.3    46  VAL46       0.0290
     63  CG1        0.4340    5.2000   56.0720 C.3    46  VAL46       0.0023
     64  CG2        2.7190    6.1760   56.4560 C.3    46  VAL46       0.0023
     65  N         -1.1470    7.1660   54.0960 N.am   47  ALA47      -0.1963
     66  CA        -2.5790    7.3170   53.8070 C.3    47  ALA47       0.1728
     67  C         -3.4140    7.0110   55.0560 C.2    47  ALA47       0.2616
     68  O         -3.1400    6.0370   55.7630 O.2    47  ALA47      -0.2715
     69  CB        -2.9960    6.3990   52.6570 C.3    47  ALA47       0.0334
     70  N         -4.4160    7.8510   55.3110 N.am   48  ASP48      -0.1957
     71  CA        -5.3540    7.6660   56.4360 C.3    48  ASP48       0.1840
     72  C         -4.7100    7.9790   57.7920 C.2    48  ASP48       0.2622
     73  O         -5.2740    7.6250   58.8350 O.2    48  ASP48      -0.2715
     74  CB        -5.9320    6.2360   56.4860 C.3    48  ASP48       0.1450
     75  CG        -6.4480    5.7420   55.1450 C.2    48  ASP48       0.3671
     76  OD1       -7.4990    6.2390   54.7020 O.co2  48  ASP48      -0.2456
     77  OD2       -5.8190    4.8270   54.5550 O.co2  48  ASP48      -0.2456
     78  N         -3.5300    8.5920   57.7820 N.am   49  THR49      -0.1951
     79  CA        -2.8820    9.0590   59.0200 C.3    49  THR49       0.1897
     80  C         -2.7040   10.5900   58.9660 C.2    49  THR49       0.2313
     81  O         -3.0500   11.2320   57.9730 O.2    49  THR49      -0.2863
     82  CB        -1.5240    8.3660   59.2870 C.3    49  THR49       0.1794
     83  OG1       -0.5120    8.9320   58.4420 O.3    49  THR49      -0.2208
     84  CG2       -1.6070    6.8530   59.0680 C.3    49  THR49       0.0378
     85  N         -1.3580   14.4430   58.6740 N.3    51  ASN51      -0.1240
     86  CA        -0.4280   15.2050   57.8410 C.3    51  ASN51       0.1653
     87  C          0.2060   16.3720   58.5960 C.2    51  ASN51       0.2266
     88  O         -0.4010   16.9110   59.5260 O.2    51  ASN51      -0.2867
     89  CB        -1.1370   15.7160   56.5880 C.3    51  ASN51       0.1155
     90  CG        -1.6180   14.5880   55.6930 C.2    51  ASN51       0.2627
     91  OD1       -0.9130   13.5980   55.5030 O.2    51  ASN51      -0.2716
     92  ND2       -2.8240   14.7300   55.1470 N.am   51  ASN51      -0.0877
     93  N          5.6580   10.0020   53.6970 N.3    68  VAL68      -0.1245
     94  CA         6.1210    9.1850   52.5780 C.3    68  VAL68       0.1561
     95  C          6.5160   10.1860   51.4890 C.2    68  VAL68       0.2260
     96  O          5.7350   11.0630   51.1390 O.2    68  VAL68      -0.2867
     97  CB         5.0180    8.2400   52.0770 C.3    68  VAL68       0.0252
     98  CG1        5.5190    7.4160   50.8760 C.3    68  VAL68       0.0019
     99  CG2        4.5680    7.3120   53.2020 C.3    68  VAL68       0.0019
    100  N          6.1140    7.5710   46.9600 N.3    73  ASN73      -0.1240
    101  CA         4.6850    7.4230   46.6430 C.3    73  ASN73       0.1653
    102  C          4.4630    6.9440   45.2060 C.2    73  ASN73       0.2266
    103  O          3.5580    6.1450   44.9480 O.2    73  ASN73      -0.2867
    104  CB         3.8990    8.7020   46.9710 C.3    73  ASN73       0.1155
    105  CG         3.3570    8.6960   48.3970 C.2    73  ASN73       0.2627
    106  OD1        3.4170    9.7140   49.1150 O.2    73  ASN73      -0.2716
    107  ND2        2.8400    7.5450   48.8240 N.am   73  ASN73      -0.0877
    108  N          2.9380    3.2710   44.5340 N.3    77  GLN77      -0.1245
    109  CA         1.7980    3.0810   43.6350 C.3    77  GLN77       0.1566
    110  C          2.0310    1.8430   42.7630 C.2    77  GLN77       0.2260
    111  O          1.1330    1.0160   42.6060 O.2    77  GLN77      -0.2867
    112  CB         1.5500    4.3040   42.7560 C.3    77  GLN77       0.0367
    113  CG         0.2930    4.1670   41.9130 C.3    77  GLN77       0.0905
    114  CD         0.1360    5.2810   40.9010 C.2    77  GLN77       0.2608
    115  OE1        0.6370    6.4010   41.0880 O.2    77  GLN77      -0.2717
    116  NE2       -0.5830    4.9810   39.8170 N.am   77  GLN77      -0.0878
@<TRIPOS>BOND
     1    33    31    1
     2     6     8    1
     3     6     5    1
     4   116   114   am
     5    27    28    1
     6    31    28    1
     7    31    32    1
     8     1     2    1
     9    28    29    1
    10     5     2    1
    11     5     7    1
    12   114   115    2
    13   114   113    1
    14     2     3    1
    15   113   112    1
    16    29    30    2
    17    29    34   am
    18    34    35    1
    19   111   110    2
    20     3     4    2
    21   112   109    1
    22   110   109    1
    23   109   108    1
    24    37    36    2
    25    35    36    1
    26    36    38   am
    27   103   102    2
    28   102   101    1
    29    38    39    1
    30    15    14    1
    31    15    16    1
    32     9    10    1
    33    14    13    1
    34    45    47   ar
    35    45    43   ar
    36    42    39    1
    37    42    43    1
    38    39    40    1
    39    13    10    1
    40   101   100    1
    41   101   104    1
    42    47    48   ar
    43    16    17    2
    44   104   105    1
    45    43    44   ar
    46    10    11    1
    47    18    17    1
    48    17    19    1
    49    40    41    2
    50    48    49    1
    51    48    46   ar
    52    11    12    2
    53    44    46   ar
    54   105   107   am
    55   105   106    2
    56    98    97    1
    57    96    95    2
    58    95    94    1
    59    20    21    1
    60    50    51    1
    61    97    94    1
    62    97    99    1
    63    94    93    1
    64    26    24    1
    65    69    66    1
    66    51    52    1
    67    21    24    1
    68    21    22    1
    69    53    52    2
    70    24    25    1
    71    52    54   am
    72    66    65    1
    73    66    67    1
    74    57    56    2
    75    22    23    2
    76    65    60   am
    77    77    75   ar
    78    76    75   ar
    79    54    55    1
    80    67    70   am
    81    67    68    2
    82    56    55    1
    83    56    58   am
    84    75    74    1
    85    60    59    1
    86    60    61    2
    87    92    90   am
    88    70    71    1
    89    59    58    1
    90    59    62    1
    91    91    90    2
    92    90    89    1
    93    63    62    1
    94    62    64    1
    95    71    74    1
    96    71    72    1
    97    89    86    1
    98    78    72   am
    99    78    79    1
   100    72    73    2
   101    86    87    1
   102    86    85    1
   103    81    80    2
   104    83    82    1
   105    87    88    2
   106    80    79    1
   107    79    82    1
   108    84    82    1
