@<TRIPOS>MOLECULE
tmp/2hvwA01.pdb
 140 134 0 0 0
SMALL
GASTEIGER

@<TRIPOS>ATOM
      1  N          3.3590   18.8090   53.5590 N.3    22  CYS22      -0.1235
      2  CA         4.4940   19.0890   54.4350 C.3    22  CYS22       0.1677
      3  C          5.2400   20.3110   53.9050 C.2    22  CYS22       0.2270
      4  O          5.9420   20.2300   52.8970 O.2    22  CYS22      -0.2867
      5  CB         5.4200   17.8630   54.5390 C.3    22  CYS22       0.0956
      6  SG         7.0020   18.2170   55.3790 S.3    22  CYS22      -0.0801
      7  N          7.8390   21.9460   54.5540 N.3    24  ARG24      -0.1231
      8  CA         9.2980   21.9840   54.4650 C.3    24  ARG24       0.1694
      9  C          9.7590   21.9420   53.0040 C.2    24  ARG24       0.2591
     10  O         10.7890   22.5230   52.6570 O.2    24  ARG24      -0.2718
     11  CB         9.9370   20.8650   55.2900 C.3    24  ARG24       0.0321
     12  CG         9.9060   21.1300   56.8050 C.3    24  ARG24       0.0489
     13  CD        10.5070   19.9780   57.6160 C.3    24  ARG24       0.2205
     14  NE        11.8630   19.6380   57.1880 N.pl3  24  ARG24      -0.0865
     15  CZ        12.9480   20.3450   57.5030 C.cat  24  ARG24       0.5346
     16  NH1       12.8430   21.4390   58.2550 N.pl3  24  ARG24       0.1354
     17  NH2       14.1390   19.9730   57.0600 N.pl3  24  ARG24       0.1354
     18  N          8.9790   21.2700   52.1510 N.am   25  ALA25      -0.1980
     19  CA         9.2490   21.2170   50.7120 C.3    25  ALA25       0.1597
     20  C          8.0300   20.5920   50.0560 C.2    25  ALA25       0.2287
     21  O          7.6190   19.4930   50.4510 O.2    25  ALA25      -0.2864
     22  CB        10.5010   20.3690   50.4120 C.3    25  ALA25       0.0319
     23  N          6.8680   18.5990   47.3830 N.3    27  VAL27      -0.1245
     24  CA         7.5260   17.7180   46.4250 C.3    27  VAL27       0.1561
     25  C          6.5150   16.9330   45.5970 C.2    27  VAL27       0.2260
     26  O          5.5230   16.4010   46.1270 O.2    27  VAL27      -0.2867
     27  CB         8.5060   16.7310   47.1020 C.3    27  VAL27       0.0252
     28  CG1        9.4330   16.1190   46.0760 C.3    27  VAL27       0.0019
     29  CG2        9.3660   17.4410   48.1890 C.3    27  VAL27       0.0019
     30  N          4.6000   14.3810   48.5830 N.3    43  ASN43      -0.1240
     31  CA         4.9580   14.0550   49.9570 C.3    43  ASN43       0.1653
     32  C          3.8160   14.3550   50.9070 C.2    43  ASN43       0.2266
     33  O          3.2280   15.4440   50.8740 O.2    43  ASN43      -0.2867
     34  CB         6.2780   14.7250   50.4150 C.3    43  ASN43       0.1155
     35  CG         6.2620   16.2670   50.3030 C.2    43  ASN43       0.2627
     36  OD1        5.7270   16.8420   49.3530 O.2    43  ASN43      -0.2716
     37  ND2        6.8980   16.9350   51.2760 N.am   43  ASN43      -0.0877
     38  N         15.3820   16.2320   59.7670 N.3    63  HIS63      -0.1226
     39  CA        14.4810   15.8220   58.6800 C.3    63  HIS63       0.1752
     40  C         13.0790   15.5680   59.2250 C.2    63  HIS63       0.2596
     41  O         12.9330   15.0600   60.3430 O.2    63  HIS63      -0.2718
     42  CB        14.9800   14.5260   58.0460 C.3    63  HIS63       0.0759
     43  CG        16.2690   14.6710   57.3040 C.ar   63  HIS63       0.0818
     44  ND1       16.3390   15.2110   56.0360 N.ar   63  HIS63      -0.2268
     45  CD2       17.5390   14.3490   57.6500 C.ar   63  HIS63       0.1154
     46  CE1       17.5990   15.2230   55.6360 C.ar   63  HIS63       0.1986
     47  NE2       18.3460   14.7010   56.5930 N.ar   63  HIS63      -0.2212
     48  N         12.0530   15.9020   58.4410 N.am   64  CYS64      -0.1970
     49  CA        10.6950   15.5160   58.8110 C.3    64  CYS64       0.1712
     50  C         10.4510   14.0700   58.4110 C.2    64  CYS64       0.2296
     51  O         10.4570   13.7450   57.2200 O.2    64  CYS64      -0.2864
     52  CB         9.6320   16.4280   58.1880 C.3    64  CYS64       0.0983
     53  SG         7.9720   15.8750   58.6010 S.3    64  CYS64      -0.0798
     54  N          6.4660   12.0390   56.5800 N.3    67  THR67      -0.1218
     55  CA         5.9520   11.8400   55.2310 C.3    67  THR67       0.1862
     56  C          6.5140   10.6210   54.5070 C.2    67  THR67       0.2287
     57  O          7.6790   10.2570   54.6700 O.2    67  THR67      -0.2866
     58  CB         6.2700   13.0600   54.3630 C.3    67  THR67       0.1770
     59  OG1        7.6820   13.3080   54.4160 O.3    67  THR67      -0.2211
     60  CG2        5.5000   14.2930   54.8710 C.3    67  THR67       0.0375
     61  N          7.7480   10.0740   50.9980 N.3    69  HIS69      -0.1226
     62  CA         8.2660   11.0290   50.0210 C.3    69  HIS69       0.1752
     63  C          7.5660   10.8950   48.6680 C.2    69  HIS69       0.2596
     64  O          6.9710    9.8500   48.3750 O.2    69  HIS69      -0.2718
     65  CB         9.7750   10.8480   49.8690 C.3    69  HIS69       0.0759
     66  CG        10.5510   11.2440   51.0900 C.ar   69  HIS69       0.0818
     67  ND1       11.8530   11.6940   51.0280 N.ar   69  HIS69      -0.2268
     68  CD2       10.2020   11.2700   52.4030 C.ar   69  HIS69       0.1154
     69  CE1       12.2770   11.9710   52.2510 C.ar   69  HIS69       0.1986
     70  NE2       11.2960   11.7190   53.1040 N.ar   69  HIS69      -0.2212
     71  N          7.6500   11.9480   47.8470 N.am   70  ALA70      -0.1966
     72  CA         6.9700   11.9640   46.5450 C.3    70  ALA70       0.1728
     73  C          7.4160   10.7830   45.6870 C.2    70  ALA70       0.2616
     74  O          6.5730   10.0340   45.1650 O.2    70  ALA70      -0.2715
     75  CB         7.2310   13.2860   45.8050 C.3    70  ALA70       0.0334
     76  N          8.7340   10.6240   45.5470 N.am   71  GLU71      -0.1977
     77  CA         9.3110    9.5350   44.7440 C.3    71  GLU71       0.1602
     78  C          8.8530    8.1690   45.2450 C.2    71  GLU71       0.2287
     79  O          8.5050    7.2830   44.4540 O.2    71  GLU71      -0.2864
     80  CB        10.8440    9.5910   44.7490 C.3    71  GLU71       0.0415
     81  CG        11.4470   10.9260   44.3690 C.3    71  GLU71       0.1163
     82  CD        11.7100   11.7970   45.5790 C.2    71  GLU71       0.3649
     83  OE1       10.7360   12.3440   46.1460 O.co2  71  GLU71      -0.2457
     84  OE2       12.8980   11.9290   45.9450 O.co2  71  GLU71      -0.2457
     85  N         12.2590   18.0390   43.4390 N.3    94  HIS94      -0.1226
     86  CA        13.4080   18.1570   44.3470 C.3    94  HIS94       0.1752
     87  C         14.3180   16.9560   44.1860 C.2    94  HIS94       0.2596
     88  O         13.8350   15.8230   44.0520 O.2    94  HIS94      -0.2718
     89  CB        12.9270   18.2310   45.8090 C.3    94  HIS94       0.0759
     90  CG        12.1440   19.4680   46.1350 C.ar   94  HIS94       0.0818
     91  ND1       10.8830   19.7160   45.6350 N.ar   94  HIS94      -0.2268
     92  CD2       12.4480   20.5240   46.9290 C.ar   94  HIS94       0.1154
     93  CE1       10.4490   20.8760   46.0930 C.ar   94  HIS94       0.1986
     94  NE2       11.3790   21.3860   46.8830 N.ar   94  HIS94      -0.2212
     95  N         15.6280   17.1980   44.2130 N.am   95  PHE95      -0.1976
     96  CA        16.6320   16.1230   44.1490 C.3    95  PHE95       0.1639
     97  C         16.3570   15.0400   45.2050 C.2    95  PHE95       0.2290
     98  O         16.1050   15.3740   46.3670 O.2    95  PHE95      -0.2864
     99  CB        18.0400   16.6950   44.3710 C.3    95  PHE95       0.0560
    100  CG        19.1320   15.7150   44.0570 C.ar   95  PHE95      -0.0200
    101  CD1       19.7270   15.6970   42.7900 C.ar   95  PHE95      -0.0042
    102  CD2       19.5490   14.7880   45.0060 C.ar   95  PHE95      -0.0042
    103  CE1       20.7310   14.7810   42.4840 C.ar   95  PHE95      -0.0003
    104  CE2       20.5510   13.8620   44.7160 C.ar   95  PHE95      -0.0003
    105  CZ        21.1510   13.8540   43.4530 C.ar   95  PHE95      -0.0000
    106  N         16.4190   12.3490   48.1150 N.3    97  CYS97      -0.1235
    107  CA        17.1750   12.0000   49.3140 C.3    97  CYS97       0.1677
    108  C         17.8230   10.6280   49.1480 C.2    97  CYS97       0.2270
    109  O         17.5280    9.9010   48.1860 O.2    97  CYS97      -0.2867
    110  CB        16.2310   11.9890   50.5250 C.3    97  CYS97       0.0956
    111  SG        15.1370   10.5290   50.6020 S.3    97  CYS97      -0.0801
    112  N         15.2130    7.6550   48.9410 N.3   100  CYS100     -0.1235
    113  CA        14.5190    7.6360   47.6470 C.3   100  CYS100      0.1677
    114  C         15.4710    7.2190   46.5290 C.2   100  CYS100      0.2270
    115  O         15.1060    6.4220   45.6700 O.2   100  CYS100     -0.2867
    116  CB        13.8910    8.9980   47.3510 C.3   100  CYS100      0.0956
    117  SG        12.3910    9.2930   48.3390 S.3   100  CYS100     -0.0801
    118  N         17.8790   20.2230   46.1730 N.3   118  TYR118     -0.1227
    119  CA        17.4800   20.1780   47.5770 C.3   118  TYR118      0.1736
    120  C         18.3560   19.2220   48.3770 C.2   118  TYR118      0.2595
    121  O         18.3270   18.0190   48.1380 O.2   118  TYR118     -0.2718
    122  CB        16.0070   19.7360   47.6980 C.3   118  TYR118      0.0548
    123  CG        15.4760   19.8140   49.1140 C.ar  118  TYR118     -0.0200
    124  CD1       15.1570   21.0470   49.6790 C.ar  118  TYR118     -0.0009
    125  CD2       15.3050   18.6620   49.8930 C.ar  118  TYR118     -0.0009
    126  CE1       14.6650   21.1380   50.9750 C.ar  118  TYR118      0.0417
    127  CE2       14.8130   18.7430   51.1970 C.ar  118  TYR118      0.0417
    128  CZ        14.5080   19.9910   51.7330 C.ar  118  TYR118      0.1957
    129  OH        14.0320   20.0960   53.0190 O.3   118  TYR118     -0.2866
    130  N         19.1170   19.7650   49.3320 N.am  119  ARG119     -0.1980
    131  CA        19.8650   18.9530   50.2920 C.3   119  ARG119      0.1597
    132  C         20.5510   17.7630   49.6150 C.2   119  ARG119      0.2287
    133  O         20.3570   16.6090   50.0110 O.2   119  ARG119     -0.2864
    134  CB        18.9360   18.4690   51.4170 C.3   119  ARG119      0.0334
    135  CG        18.1700   19.5990   52.1110 C.3   119  ARG119      0.0492
    136  CD        17.4720   19.1030   53.3630 C.3   119  ARG119      0.2205
    137  NE        18.4190   18.8910   54.4590 N.pl3 119  ARG119     -0.0865
    138  CZ        18.0700   18.5550   55.6970 C.cat 119  ARG119      0.5346
    139  NH1       16.7900   18.3620   56.0060 N.pl3 119  ARG119      0.1354
    140  NH2       19.0070   18.3940   56.6240 N.pl3 119  ARG119      0.1354
@<TRIPOS>BOND
     1   103   101   ar
     2   103   105   ar
     3   101   100   ar
     4    85    86    1
     5   105   104   ar
     6    88    87    2
     7   100    99    1
     8   100   102   ar
     9    96    95    1
    10    96    99    1
    11    96    97    1
    12    87    95   am
    13    87    86    1
    14    86    89    1
    15    81    80    1
    16    81    82    1
    17    79    78    2
    18   104   102   ar
    19    77    80    1
    20    77    78    1
    21    77    76    1
    22    74    73    2
    23    97    98    2
    24    76    73   am
    25    82    84   ar
    26    82    83   ar
    27    25    26    2
    28    25    24    1
    29    91    93   ar
    30    91    90   ar
    31   115   114    2
    32    73    72    1
    33    75    72    1
    34    89    90    1
    35    28    27    1
    36    93    94   ar
    37    90    92   ar
    38   118   119    1
    39    24    27    1
    40    24    23    1
    41   114   113    1
    42    72    71    1
    43    94    92   ar
    44    27    29    1
    45   116   113    1
    46   116   117    1
    47   119   122    1
    48   119   120    1
    49   113   112    1
    50   122   123    1
    51    71    63   am
    52   106   107    1
    53   121   120    2
    54   109   108    2
    55    64    63    2
    56   120   130   am
    57    30    31    1
    58    63    62    1
    59   123   124   ar
    60   123   125   ar
    61   108   107    1
    62   107   110    1
    63   130   131    1
    64    36    35    2
    65   132   133    2
    66   132   131    1
    67   124   126   ar
    68    65    62    1
    69    65    66    1
    70   125   127   ar
    71    31    34    1
    72    31    32    1
    73    62    61    1
    74    20    21    2
    75    20    19    1
    76   131   134    1
    77    35    34    1
    78    35    37   am
    79    22    19    1
    80   110   111    1
    81    19    18    1
    82    33    32    2
    83   126   128   ar
    84    67    66   ar
    85    67    69   ar
    86    66    68   ar
    87   127   128   ar
    88   134   135    1
    89   128   129    1
    90   135   136    1
    91    18     9   am
    92    69    70   ar
    93    68    70   ar
    94    10     9    2
    95     4     3    2
    96     9     8    1
    97   136   137    1
    98     1     2    1
    99     3     2    1
   100    58    59    1
   101    58    60    1
   102    58    55    1
   103     2     5    1
   104   137   138    2
   105     8     7    1
   106     8    11    1
   107    56    57    2
   108    56    55    1
   109     5     6    1
   110    55    54    1
   111    11    12    1
   112    46    44   ar
   113    46    47   ar
   114   138   139    1
   115   138   140    1
   116    44    43   ar
   117    47    45   ar
   118    12    13    1
   119    17    15    1
   120    14    15    2
   121    14    13    1
   122    51    50    2
   123    43    45   ar
   124    43    42    1
   125    15    16    1
   126    42    39    1
   127    52    53    1
   128    52    49    1
   129    50    49    1
   130    48    49    1
   131    48    40   am
   132    39    40    1
   133    39    38    1
   134    40    41    2
