@<TRIPOS>MOLECULE
tmp/2hvxA00.pdb
 178 173 0 0 0
SMALL
GASTEIGER

@<TRIPOS>ATOM
      1  N         71.3270   51.7670   -5.6020 N.3    29  PHE29      -0.1227
      2  CA        70.8600   50.9250   -4.5090 C.3    29  PHE29       0.1736
      3  C         69.4310   51.2460   -4.0860 C.2    29  PHE29       0.2595
      4  O         68.9060   52.3140   -4.3810 O.2    29  PHE29      -0.2718
      5  CB        71.8080   50.9980   -3.3030 C.3    29  PHE29       0.0547
      6  CG        71.7030   52.2680   -2.5030 C.ar   29  PHE29      -0.0202
      7  CD1       72.3250   53.4310   -2.9310 C.ar   29  PHE29      -0.0042
      8  CD2       71.0060   52.2870   -1.2970 C.ar   29  PHE29      -0.0042
      9  CE1       72.2600   54.5870   -2.1730 C.ar   29  PHE29      -0.0003
     10  CE2       70.9330   53.4440   -0.5270 C.ar   29  PHE29      -0.0003
     11  CZ        71.5640   54.5970   -0.9660 C.ar   29  PHE29      -0.0000
     12  N         68.7990   50.2910   -3.4180 N.am   30  CYS30      -0.1970
     13  CA        67.4290   50.4310   -2.9380 C.3    30  CYS30       0.1712
     14  C         67.2230   49.4970   -1.7670 C.2    30  CYS30       0.2296
     15  O         68.0660   48.6600   -1.4520 O.2    30  CYS30      -0.2864
     16  CB        66.4290   50.0210   -4.0190 C.3    30  CYS30       0.0983
     17  SG        66.1530   51.1710   -5.4020 S.3    30  CYS30      -0.0798
     18  N         60.8200   50.8480   -9.8960 N.3    45  HIS45      -0.1241
     19  CA        61.8450   51.6950  -10.4700 C.3    45  HIS45       0.1621
     20  C         63.2490   51.2870  -10.0510 C.2    45  HIS45       0.2264
     21  O         64.2310   51.7930  -10.5710 O.2    45  HIS45      -0.2867
     22  CB        61.5980   53.1900  -10.1660 C.3    45  HIS45       0.0745
     23  CG        61.8590   53.5970   -8.7470 C.ar   45  HIS45       0.0817
     24  ND1       60.8710   53.6240   -7.7860 N.ar   45  HIS45      -0.2268
     25  CD2       62.9850   54.0440   -8.1390 C.ar   45  HIS45       0.1154
     26  CE1       61.3750   54.0750   -6.6500 C.ar   45  HIS45       0.1986
     27  NE2       62.6570   54.3380   -6.8360 N.ar   45  HIS45      -0.2212
     28  N         53.3060   49.0550  -14.8160 N.3    81  TYR81      -0.1227
     29  CA        54.2900   50.0100  -14.3020 C.3    81  TYR81       0.1736
     30  C         54.5170   51.1840  -15.2480 C.2    81  TYR81       0.2595
     31  O         54.8920   50.9900  -16.4060 O.2    81  TYR81      -0.2718
     32  CB        55.6220   49.2890  -14.0720 C.3    81  TYR81       0.0548
     33  CG        56.8080   50.1850  -13.8510 C.ar   81  TYR81      -0.0200
     34  CD1       56.9390   50.9380  -12.6780 C.ar   81  TYR81      -0.0009
     35  CD2       57.8340   50.2550  -14.7960 C.ar   81  TYR81      -0.0009
     36  CE1       58.0600   51.7260  -12.4540 C.ar   81  TYR81       0.0417
     37  CE2       58.9560   51.0390  -14.5840 C.ar   81  TYR81       0.0417
     38  CZ        59.0660   51.7700  -13.4070 C.ar   81  TYR81       0.1957
     39  OH        60.1870   52.5080  -13.1670 O.3    81  TYR81      -0.2866
     40  N         54.3020   52.4020  -14.7550 N.am   82  ASN82      -0.1960
     41  CA        54.4610   53.6090  -15.5760 C.3    82  ASN82       0.1819
     42  C         55.5380   54.5730  -15.0810 C.2    82  ASN82       0.2621
     43  O         55.4480   55.1060  -13.9770 O.2    82  ASN82      -0.2715
     44  CB        53.1260   54.3530  -15.6660 C.3    82  ASN82       0.1195
     45  CG        53.1130   55.3760  -16.7760 C.2    82  ASN82       0.2630
     46  OD1       53.9790   56.2660  -16.8190 O.2    82  ASN82      -0.2716
     47  ND2       52.1470   55.2610  -17.6920 N.am   82  ASN82      -0.0877
     48  N         56.5500   54.8060  -15.9170 N.am   83  THR83      -0.1951
     49  CA        57.6840   55.6950  -15.5890 C.3    83  THR83       0.1897
     50  C         57.3920   57.1930  -15.6210 C.2    83  THR83       0.2313
     51  O         58.2170   57.9960  -15.1930 O.2    83  THR83      -0.2863
     52  CB        58.8890   55.4570  -16.5120 C.3    83  THR83       0.1794
     53  OG1       58.5420   55.8320  -17.8490 O.3    83  THR83      -0.2208
     54  CG2       59.3470   53.9970  -16.4500 C.3    83  THR83       0.0378
     55  N         54.4440   57.0370  -12.5280 N.3    86  LEU86      -0.1245
     56  CA        55.0220   56.3810  -11.3580 C.3    86  LEU86       0.1561
     57  C         54.0560   55.4810  -10.6100 C.2    86  LEU86       0.2260
     58  O         54.2880   55.1110   -9.4330 O.2    86  LEU86      -0.2867
     59  CB        55.5660   57.4540  -10.4160 C.3    86  LEU86       0.0270
     60  CG        56.3570   58.6380  -10.9240 C.3    86  LEU86       0.0019
     61  CD1       56.7580   59.5150   -9.7320 C.3    86  LEU86       0.0001
     62  CD2       57.6030   58.1680  -11.6530 C.3    86  LEU86       0.0001
     63  N         54.3740   51.1700   -8.8180 N.3    89  ASP89      -0.1239
     64  CA        55.8080   51.0300   -8.6130 C.3    89  ASP89       0.1674
     65  C         56.0530   49.8860   -7.6310 C.2    89  ASP89       0.2266
     66  O         56.4110   50.1180   -6.4800 O.2    89  ASP89      -0.2867
     67  CB        56.3850   52.3470   -8.0780 C.3    89  ASP89       0.1410
     68  CG        57.8730   52.2750   -7.8340 C.2    89  ASP89       0.3668
     69  OD1       58.5560   51.4910   -8.5300 O.co2  89  ASP89      -0.2456
     70  OD2       58.3620   53.0210   -6.9630 O.co2  89  ASP89      -0.2456
     71  N         61.2250   61.8630    7.1490 N.3   176  SER176     -0.1202
     72  CA        60.6900   61.2990    5.9130 C.3   176  SER176      0.2020
     73  C         61.6130   60.2480    5.3060 C.2   176  SER176      0.2619
     74  O         62.7160   60.0100    5.7940 O.2   176  SER176     -0.2717
     75  CB        60.4710   62.4250    4.8880 C.3   176  SER176      0.2103
     76  OG        60.2840   61.9140    3.5790 O.3   176  SER176     -0.2182
     77  N         61.1380   59.6050    4.2470 N.am  177  ALA177     -0.1965
     78  CA        61.9250   58.6230    3.5190 C.3   177  ALA177      0.1728
     79  C         62.5780   59.4460    2.4030 C.2   177  ALA177      0.2616
     80  O         62.0180   60.4490    1.9800 O.2   177  ALA177     -0.2715
     81  CB        61.0120   57.5640    2.9380 C.3   177  ALA177      0.0334
     82  N         63.7500   59.0380    1.9330 N.am  178  PHE178     -0.1960
     83  CA        64.4050   59.8090    0.8790 C.3   178  PHE178      0.1771
     84  C         65.1570   58.9150   -0.0840 C.2   178  PHE178      0.2619
     85  O         65.2100   57.6860    0.0950 O.2   178  PHE178     -0.2715
     86  CB        65.3470   60.8490    1.5170 C.3   178  PHE178      0.0574
     87  CG        65.7030   62.0020    0.6170 C.ar  178  PHE178     -0.0200
     88  CD1       64.7270   62.6610   -0.1380 C.ar  178  PHE178     -0.0042
     89  CD2       67.0150   62.4660    0.5530 C.ar  178  PHE178     -0.0042
     90  CE1       65.0540   63.7380   -0.9310 C.ar  178  PHE178     -0.0003
     91  CE2       67.3640   63.5480   -0.2350 C.ar  178  PHE178     -0.0003
     92  CZ        66.3740   64.1920   -0.9830 C.ar  178  PHE178     -0.0000
     93  N         65.7190   59.5370   -1.1190 N.am  179  LYS179     -0.1963
     94  CA        66.4900   58.8560   -2.1500 C.3   179  LYS179      0.1728
     95  C         67.2500   57.7210   -1.4820 C.2   179  LYS179      0.2616
     96  O         67.9120   57.9180   -0.4640 O.2   179  LYS179     -0.2715
     97  CB        67.4760   59.8340   -2.7920 C.3   179  LYS179      0.0311
     98  CG        66.8240   61.1530   -3.2040 C.3   179  LYS179      0.0038
     99  CD        67.6740   61.9480   -4.1810 C.3   179  LYS179      0.0206
    100  CE        67.8850   61.2220   -5.5170 C.3   179  LYS179      0.1093
    101  NZ        66.6330   61.0410   -6.3160 N.3   179  LYS179     -0.1314
    102  N         67.1270   56.5250   -2.0380 N.am  180  GLY180     -0.1955
    103  CA        67.8110   55.3780   -1.4750 C.3   180  GLY180      0.1869
    104  C         66.8980   54.4510   -0.6960 C.2   180  GLY180      0.2309
    105  O         67.0850   53.2260   -0.7150 O.2   180  GLY180     -0.2863
    106  N         63.8180   53.8360   -1.3400 N.3   182  SER182     -0.1217
    107  CA        62.8570   53.2110   -2.2460 C.3   182  SER182      0.1889
    108  C         62.8710   51.6870   -2.1650 C.2   182  SER182      0.2288
    109  O         63.9350   51.0620   -2.1020 O.2   182  SER182     -0.2866
    110  CB        63.1470   53.6250   -3.6880 C.3   182  SER182      0.2089
    111  OG        63.0050   55.0200   -3.8450 O.3   182  SER182     -0.2183
    112  N         58.2670   52.3330   -0.1780 N.3   196  VAL196     -0.1231
    113  CA        58.7610   53.6570   -0.5240 C.3   196  VAL196      0.1692
    114  C         58.8610   53.7880   -2.0470 C.2   196  VAL196      0.2593
    115  O         59.5340   52.9850   -2.6970 O.2   196  VAL196     -0.2718
    116  CB        60.1450   53.9030    0.1040 C.3   196  VAL196      0.0266
    117  CG1       60.6050   55.3010   -0.1820 C.3   196  VAL196      0.0020
    118  CG2       60.0880   53.6600    1.6000 C.3   196  VAL196      0.0020
    119  N         58.1990   54.7980   -2.6100 N.am  197  SER197     -0.1938
    120  CA        58.2110   55.0160   -4.0540 C.3   197  SER197      0.2055
    121  C         58.8570   56.3240   -4.5210 C.2   197  SER197      0.2643
    122  O         59.8170   56.2920   -5.2920 O.2   197  SER197     -0.2714
    123  CB        56.7880   54.9350   -4.5900 C.3   197  SER197      0.2130
    124  OG        56.7770   55.1450   -5.9870 O.3   197  SER197     -0.2179
    125  N         58.3250   57.4680   -4.0890 N.am  198  TYR198     -0.1959
    126  CA        58.8950   58.7620   -4.4780 C.3   198  TYR198      0.1771
    127  C         58.4990   59.9380   -3.5860 C.2   198  TYR198      0.2620
    128  O         57.6240   59.8340   -2.7310 O.2   198  TYR198     -0.2715
    129  CB        58.5340   59.0950   -5.9360 C.3   198  TYR198      0.0574
    130  CG        57.0740   59.4330   -6.1960 C.ar  198  TYR198     -0.0198
    131  CD1       56.5780   60.7180   -5.9550 C.ar  198  TYR198     -0.0009
    132  CD2       56.2100   58.4840   -6.7430 C.ar  198  TYR198     -0.0009
    133  CE1       55.2760   61.0510   -6.2590 C.ar  198  TYR198      0.0417
    134  CE2       54.8950   58.8050   -7.0490 C.ar  198  TYR198      0.0417
    135  CZ        54.4350   60.0910   -6.8050 C.ar  198  TYR198      0.1957
    136  OH        53.1330   60.4160   -7.1010 O.3   198  TYR198     -0.2866
    137  N         59.1660   61.0630   -3.8020 N.am  199  GLY199     -0.1940
    138  CA        58.8790   62.2660   -3.0430 C.3   199  GLY199      0.2014
    139  C         59.5310   63.4510   -3.7260 C.2   199  GLY199      0.2639
    140  O         60.0780   63.2960   -4.8100 O.2   199  GLY199     -0.2714
    141  N         59.4680   64.6280   -3.1070 N.am  200  ARG200     -0.1963
    142  CA        60.0800   65.8240   -3.6780 C.3   200  ARG200      0.1729
    143  C         61.5970   65.7180   -3.5450 C.2   200  ARG200      0.2616
    144  O         62.1070   65.1940   -2.5440 O.2   200  ARG200     -0.2715
    145  CB        59.6000   67.0890   -2.9500 C.3   200  ARG200      0.0348
    146  CG        58.1190   67.4300   -3.1170 C.3   200  ARG200      0.0492
    147  CD        57.6970   68.4880   -2.0920 C.3   200  ARG200      0.2205
    148  NE        58.4430   69.7340   -2.2480 N.pl3 200  ARG200     -0.0865
    149  CZ        58.1480   70.6710   -3.1450 C.cat 200  ARG200      0.5346
    150  NH1       57.1090   70.5140   -3.9620 N.pl3 200  ARG200      0.1354
    151  NH2       58.9120   71.7470   -3.2480 N.pl3 200  ARG200      0.1354
    152  N         62.3160   66.2180   -4.5470 N.am  201  SER201     -0.1950
    153  CA        63.7670   66.1810   -4.5070 C.3   201  SER201      0.1924
    154  C         64.3030   67.0160   -3.3380 C.2   201  SER201      0.2314
    155  O         65.4070   66.7620   -2.8550 O.2   201  SER201     -0.2863
    156  CB        64.3500   66.7050   -5.8150 C.3   201  SER201      0.2116
    157  OG        64.0440   68.0740   -5.9720 O.3   201  SER201     -0.2180
    158  N         63.1270   66.9970   -0.4720 N.3   203  ALA203     -0.1245
    159  CA        62.8250   66.2280    0.7370 C.3   203  ALA203      0.1562
    160  C         61.6970   66.7100    1.6450 C.2   203  ALA203      0.2260
    161  O         61.5650   66.2200    2.7590 O.2   203  ALA203     -0.2867
    162  CB        64.1040   66.0610    1.5690 C.3   203  ALA203      0.0290
    163  N         55.5730   61.9210    1.4610 N.3   207  ALA207     -0.1245
    164  CA        56.2290   61.1550    0.4160 C.3   207  ALA207      0.1562
    165  C         55.1790   60.1740   -0.1020 C.2   207  ALA207      0.2260
    166  O         54.1750   59.9170    0.5700 O.2   207  ALA207     -0.2867
    167  CB        57.4280   60.3990    0.9740 C.3   207  ALA207      0.0290
    168  N         54.0290   56.4380   -1.2230 N.3   209  PHE209     -0.1241
    169  CA        54.3060   55.0170   -1.0340 C.3   209  PHE209      0.1605
    170  C         53.2490   54.1910   -1.7540 C.2   209  PHE209      0.2264
    171  O         52.0770   54.5560   -1.7720 O.2   209  PHE209     -0.2867
    172  CB        54.2770   54.6360    0.4550 C.3   209  PHE209      0.0534
    173  CG        55.4530   55.1350    1.2510 C.ar  209  PHE209     -0.0203
    174  CD1       55.6910   56.5000    1.3970 C.ar  209  PHE209     -0.0042
    175  CD2       56.2960   54.2320    1.8990 C.ar  209  PHE209     -0.0042
    176  CE1       56.7430   56.9560    2.1750 C.ar  209  PHE209     -0.0003
    177  CE2       57.3540   54.6820    2.6830 C.ar  209  PHE209     -0.0003
    178  CZ        57.5770   56.0470    2.8210 C.ar  209  PHE209     -0.0000
@<TRIPOS>BOND
     1    53    52    1
     2    47    45   am
     3    46    45    2
     4    45    44    1
     5    52    54    1
     6    52    49    1
     7    31    30    2
     8    48    49    1
     9    48    42   am
    10    44    41    1
    11    50    49    1
    12    50    51    2
    13    41    42    1
    14    41    40    1
    15    30    40   am
    16    30    29    1
    17    42    43    2
    18    28    29    1
    19    35    37   ar
    20    35    33   ar
    21    37    38   ar
    22    29    32    1
    23    32    33    1
    24    33    34   ar
    25    38    39    1
    26    38    36   ar
    27    34    36   ar
    28    55    56    1
    29    62    60    1
    30    56    57    1
    31    56    59    1
    32    60    59    1
    33    60    61    1
    34    57    58    2
    35    21    20    2
    36    19    22    1
    37    19    20    1
    38    19    18    1
    39    22    23    1
    40    63    64    1
    41    23    25   ar
    42    23    24   ar
    43    64    67    1
    44    64    65    1
    45    69    68   ar
    46    25    27   ar
    47    67    68    1
    48    68    70   ar
    49    24    26   ar
    50    65    66    2
    51   136   135    1
    52   134   135   ar
    53   134   132   ar
    54    27    26   ar
    55   135   133   ar
    56   132   130   ar
    57   101   100    1
    58   133   131   ar
    59   130   131   ar
    60   130   129    1
    61   124   123    1
    62   157   156    1
    63   129   126    1
    64   156   153    1
    65     1     2    1
    66   100    99    1
    67    17    16    1
    68   122   121    2
    69   140   139    2
    70   123   120    1
    71   152   153    1
    72   152   143   am
    73   121   125   am
    74   121   120    1
    75     2     3    1
    76     2     5    1
    77   153   154    1
    78   126   125    1
    79   126   127    1
    80     4     3    2
    81    99    98    1
    82     3    12   am
    83   120   119    1
    84    16    13    1
    85   150   149    1
    86   111   110    1
    87   137   127   am
    88   137   138    1
    89   139   141   am
    90   139   138    1
    91   110   107    1
    92   142   143    1
    93   142   141    1
    94   142   145    1
    95   127   128    2
    96   143   144    2
    97    12    13    1
    98   154   155    2
    99     5     6    1
   100   151   149    1
   101    98    97    1
   102   149   148    2
   103   146   145    1
   104   146   147    1
   105    13    14    1
   106     7     6   ar
   107     7     9   ar
   108    97    94    1
   109   115   114    2
   110   119   114   am
   111     6     8   ar
   112   148   147    1
   113   107   108    1
   114   107   106    1
   115     9    11   ar
   116   108   109    2
   117    94    95    1
   118    94    93    1
   119   114   113    1
   120   102    95   am
   121   102   103    1
   122   171   170    2
   123    14    15    2
   124   170   169    1
   125    95    96    2
   126   103   104    1
   127     8    10   ar
   128   168   169    1
   129    93    84   am
   130   169   172    1
   131    92    90   ar
   132    92    91   ar
   133    11    10   ar
   134    90    88   ar
   135   105   104    2
   136   113   112    1
   137   113   116    1
   138   158   159    1
   139    91    89   ar
   140   117   116    1
   141    88    87   ar
   142   165   164    1
   143   165   166    2
   144    84    85    2
   145    84    83    1
   146   116   118    1
   147   164   167    1
   148   164   163    1
   149   172   173    1
   150    89    87   ar
   151    87    86    1
   152   159   162    1
   153   159   160    1
   154    83    86    1
   155    83    82    1
   156   173   174   ar
   157   173   175   ar
   158   174   176   ar
   159   160   161    2
   160   175   177   ar
   161    82    79   am
   162    80    79    2
   163   176   178   ar
   164    79    78    1
   165   177   178   ar
   166    81    78    1
   167    78    77    1
   168    76    75    1
   169    77    73   am
   170    75    72    1
   171    73    74    2
   172    73    72    1
   173    72    71    1
