@<TRIPOS>MOLECULE
tmp/2hw1A00.pdb
 122 111 0 0 0
SMALL
GASTEIGER

@<TRIPOS>ATOM
      1  N         31.5640   13.9390  -58.4720 N.3    11  VAL11      -0.1245
      2  CA        31.8800   12.5970  -58.0000 C.3    11  VAL11       0.1561
      3  C         30.6870   11.7140  -58.3280 C.2    11  VAL11       0.2260
      4  O         29.5510   12.1780  -58.2900 O.2    11  VAL11      -0.2867
      5  CB        32.0600   12.5900  -56.4500 C.3    11  VAL11       0.0252
      6  CG1       32.3780   11.1980  -55.9310 C.3    11  VAL11       0.0019
      7  CG2       33.1470   13.5470  -56.0440 C.3    11  VAL11       0.0019
      8  N         28.4940    9.1200  -56.7600 N.3    13  ASP13      -0.1239
      9  CA        28.1870    8.4250  -55.5070 C.3    13  ASP13       0.1674
     10  C         27.4360    7.1390  -55.8080 C.2    13  ASP13       0.2266
     11  O         26.3540    7.1510  -56.4050 O.2    13  ASP13      -0.2867
     12  CB        27.3580    9.2790  -54.5690 C.3    13  ASP13       0.1410
     13  CG        27.9840   10.6020  -54.2840 C.2    13  ASP13       0.3668
     14  OD1       29.1640   10.8270  -54.6030 O.co2  13  ASP13      -0.2456
     15  OD2       27.2880   11.4370  -53.7140 O.co2  13  ASP13      -0.2456
     16  N         29.6840   15.1720  -55.1880 N.3    39  GLY39      -0.1210
     17  CA        30.7290   16.1930  -55.1490 C.3    39  GLY39       0.1956
     18  C         30.1570   17.4330  -54.4890 C.2    39  GLY39       0.2611
     19  O         28.9950   17.8020  -54.7500 O.2    39  GLY39      -0.2717
     20  N         30.9410   18.0810  -53.6330 N.am   40  ASN40      -0.1974
     21  CA        30.4390   19.2340  -52.8810 C.3    40  ASN40       0.1688
     22  C         29.9000   20.3840  -53.7400 C.2    40  ASN40       0.2292
     23  O         28.7280   20.7430  -53.6470 O.2    40  ASN40      -0.2864
     24  CB        31.4970   19.8200  -51.9420 C.3    40  ASN40       0.1181
     25  CG        31.9780   18.8490  -50.9300 C.2    40  ASN40       0.2629
     26  OD1       31.9800   17.6420  -51.1530 O.2    40  ASN40      -0.2716
     27  ND2       32.4500   19.3660  -49.8110 N.am   40  ASN40      -0.0877
     28  N         26.9790   19.2810  -55.8560 N.3    43  ASN43      -0.1240
     29  CA        25.6970   19.2060  -55.1530 C.3    43  ASN43       0.1653
     30  C         25.1350   20.6130  -54.8900 C.2    43  ASN43       0.2266
     31  O         23.9120   20.8490  -54.9950 O.2    43  ASN43      -0.2867
     32  CB        25.8490   18.4460  -53.8230 C.3    43  ASN43       0.1155
     33  CG        25.9350   16.9350  -54.0130 C.2    43  ASN43       0.2627
     34  OD1       25.5490   16.4170  -55.0650 O.2    43  ASN43      -0.2716
     35  ND2       26.4460   16.2270  -53.0050 N.am   43  ASN43      -0.0877
     36  N         32.5920    7.5210  -54.9870 N.3    95  ALA95      -0.1245
     37  CA        32.4100    7.4270  -53.5430 C.3    95  ALA95       0.1562
     38  C         31.3790    6.3500  -53.2940 C.2    95  ALA95       0.2260
     39  O         30.3150    6.3110  -53.9220 O.2    95  ALA95      -0.2867
     40  CB        31.9720    8.7410  -52.9570 C.3    95  ALA95       0.0290
     41  N         25.1890    8.9010  -43.2810 N.3   106  ARG106     -0.1245
     42  CA        25.8520    8.5210  -44.5050 C.3   106  ARG106      0.1563
     43  C         27.3180    8.3480  -44.1890 C.2   106  ARG106      0.2260
     44  O         27.9290    9.1630  -43.5040 O.2   106  ARG106     -0.2867
     45  CB        25.5940    9.5000  -45.6730 C.3   106  ARG106      0.0307
     46  CG        26.6620   10.5400  -45.8960 C.3   106  ARG106      0.0489
     47  CD        26.5180   11.6360  -44.9100 C.3   106  ARG106      0.2205
     48  NE        27.5290   12.6760  -45.0370 N.pl3 106  ARG106     -0.0865
     49  CZ        28.6730   12.6820  -44.3650 C.cat 106  ARG106      0.5346
     50  NH1       28.9730   11.6720  -43.5730 N.pl3 106  ARG106      0.1354
     51  NH2       29.5280   13.6830  -44.5040 N.pl3 106  ARG106      0.1354
     52  N         30.9510    7.3900  -45.9970 N.3   108  ILE108     -0.1245
     53  CA        31.4750    7.5690  -47.3490 C.3   108  ILE108      0.1561
     54  C         32.8630    6.9720  -47.4280 C.2   108  ILE108      0.2260
     55  O         33.7470    7.3650  -46.6680 O.2   108  ILE108     -0.2867
     56  CB        31.5800    9.0800  -47.7160 C.3   108  ILE108      0.0252
     57  CG1       30.1900    9.7550  -47.6880 C.3   108  ILE108      0.0019
     58  CG2       32.2420    9.2680  -49.0880 C.3   108  ILE108      0.0019
     59  CD1       30.2030   11.2380  -48.0450 C.3   108  ILE108      0.0001
     60  N         35.8530    6.8490  -49.9130 N.3   110  TYR110     -0.1241
     61  CA        36.2130    7.6320  -51.0660 C.3   110  TYR110      0.1605
     62  C         37.4820    7.0570  -51.6940 C.2   110  TYR110      0.2264
     63  O         38.3650    6.5650  -51.0080 O.2   110  TYR110     -0.2867
     64  CB        36.4060    9.0820  -50.6420 C.3   110  TYR110      0.0534
     65  CG        36.5550   10.0590  -51.7730 C.ar  110  TYR110     -0.0201
     66  CD1       35.4330   10.5650  -52.4370 C.ar  110  TYR110     -0.0009
     67  CD2       37.8170   10.5210  -52.1630 C.ar  110  TYR110     -0.0009
     68  CE1       35.5550   11.4870  -53.4750 C.ar  110  TYR110      0.0417
     69  CE2       37.9500   11.4560  -53.2060 C.ar  110  TYR110      0.0417
     70  CZ        36.8070   11.9260  -53.8410 C.ar  110  TYR110      0.1957
     71  OH        36.9200   12.8260  -54.8520 O.3   110  TYR110     -0.2866
     72  N         35.1750   25.2330  -54.0250 N.3   137  GLU137     -0.1245
     73  CA        35.3970   24.0900  -53.1640 C.3   137  GLU137      0.1567
     74  C         36.8990   23.8240  -52.9760 C.2   137  GLU137      0.2260
     75  O         37.6290   23.5080  -53.9360 O.2   137  GLU137     -0.2867
     76  CB        34.7250   22.8540  -53.7390 C.3   137  GLU137      0.0388
     77  CG        35.0320   21.5900  -52.9580 C.3   137  GLU137      0.1160
     78  CD        34.5700   20.3280  -53.6770 C.2   137  GLU137      0.3649
     79  OE1       33.7120   20.3960  -54.5730 O.co2 137  GLU137     -0.2457
     80  OE2       35.0480   19.2430  -53.3200 O.co2 137  GLU137     -0.2457
     81  N         36.6580   22.0140  -46.0810 N.3   171  GLU171     -0.1231
     82  CA        35.8530   20.9330  -45.5350 C.3   171  GLU171      0.1699
     83  C         36.6900   19.7450  -45.0450 C.2   171  GLU171      0.2592
     84  O         36.3210   19.0760  -44.0840 O.2   171  GLU171     -0.2718
     85  CB        34.8190   20.5030  -46.5800 C.3   171  GLU171      0.0402
     86  CG        33.8110   19.5090  -46.0950 C.3   171  GLU171      0.1161
     87  CD        33.9820   18.1610  -46.7420 C.2   171  GLU171      0.3649
     88  OE1       34.5250   18.0870  -47.8670 O.co2 171  GLU171     -0.2457
     89  OE2       33.5680   17.1660  -46.1230 O.co2 171  GLU171     -0.2457
     90  N         37.8150   19.4960  -45.7090 N.am  172  LYS172     -0.1980
     91  CA        38.7420   18.4490  -45.2910 C.3   172  LYS172      0.1596
     92  C         39.7940   19.0140  -44.3540 C.2   172  LYS172      0.2287
     93  O         40.2880   20.1070  -44.5740 O.2   172  LYS172     -0.2864
     94  CB        39.4390   17.8270  -46.5090 C.3   172  LYS172      0.0298
     95  CG        38.4960   17.3210  -47.5950 C.3   172  LYS172      0.0038
     96  CD        37.6480   16.1580  -47.0890 C.3   172  LYS172      0.0206
     97  CE        36.7660   15.5610  -48.1930 C.3   172  LYS172      0.1093
     98  NZ        35.9320   14.4460  -47.6260 N.3   172  LYS172     -0.1314
     99  N         23.0740   12.5890  -46.9940 N.3   252  LEU252     -0.1231
    100  CA        24.1180   12.7640  -48.0110 C.3   252  LEU252      0.1693
    101  C         23.8780   14.0930  -48.7460 C.2   252  LEU252      0.2592
    102  O         22.8670   14.2690  -49.4460 O.2   252  LEU252     -0.2718
    103  CB        24.1310   11.5750  -49.0000 C.3   252  LEU252      0.0284
    104  CG        25.1050   11.7560  -50.1840 C.3   252  LEU252      0.0019
    105  CD1       26.5350   11.7710  -49.7120 C.3   252  LEU252      0.0001
    106  CD2       24.8580   10.6750  -51.2420 C.3   252  LEU252      0.0001
    107  N         24.7920   15.0310  -48.5630 N.am  253  GLY253     -0.1957
    108  CA        24.7440   16.3140  -49.2770 C.3   253  GLY253      0.1869
    109  C         24.0420   17.4200  -48.5010 C.2   253  GLY253      0.2309
    110  O         23.7640   18.4730  -49.0400 O.2   253  GLY253     -0.2863
    111  N         25.2090   19.2230  -46.0210 N.3   255  GLY255     -0.1210
    112  CA        26.1200   20.3600  -45.8630 C.3   255  GLY255      0.1956
    113  C         26.1850   21.1600  -47.1480 C.2   255  GLY255      0.2611
    114  O         26.1860   22.4040  -47.1460 O.2   255  GLY255     -0.2717
    115  N         26.2200   20.4520  -48.2750 N.am  256  ASP256     -0.1973
    116  CA        26.2100   21.1220  -49.5770 C.3   256  ASP256      0.1709
    117  C         24.8960   21.8860  -49.7820 C.2   256  ASP256      0.2293
    118  O         24.8820   22.9440  -50.3800 O.2   256  ASP256     -0.2864
    119  CB        26.3700   20.1070  -50.6980 C.3   256  ASP256      0.1436
    120  CG        27.6420   19.3370  -50.5790 C.2   256  ASP256      0.3671
    121  OD1       28.6610   19.9670  -50.1740 O.co2 256  ASP256     -0.2456
    122  OD2       27.6240   18.1260  -50.9050 O.co2 256  ASP256     -0.2456
@<TRIPOS>BOND
     1     1     2    1
     2     3     4    2
     3     3     2    1
     4     2     5    1
     5     8     9    1
     6     5     7    1
     7     5     6    1
     8    11    10    2
     9    28    29    1
    10    10     9    1
    11     9    12    1
    12    16    17    1
    13    29    30    1
    14    29    32    1
    15    17    18    1
    16    34    33    2
    17    31    30    2
    18    36    37    1
    19    71    70    1
    20    19    18    2
    21    14    13   ar
    22    79    78   ar
    23    12    13    1
    24    18    20   am
    25    13    15   ar
    26    72    73    1
    27    33    32    1
    28    33    35   am
    29    75    74    2
    30    39    38    2
    31    70    68   ar
    32    70    69   ar
    33    22    23    2
    34    22    21    1
    35    76    73    1
    36    76    77    1
    37    78    80   ar
    38    78    77    1
    39    20    21    1
    40    37    38    1
    41    37    40    1
    42    68    66   ar
    43    69    67   ar
    44    73    74    1
    45    21    24    1
    46    66    65   ar
    47    67    65   ar
    48    24    25    1
    49    65    64    1
    50    62    61    1
    51    62    63    2
    52   106   104    1
    53    26    25    2
    54    61    64    1
    55    61    60    1
    56    25    27   am
    57   122   120   ar
    58   119   120    1
    59   119   116    1
    60   120   121   ar
    61   118   117    2
    62   104   105    1
    63   104   103    1
    64   117   116    1
    65   116   115    1
    66   102   101    2
    67   108   107    1
    68   108   109    1
    69    58    56    1
    70   110   109    2
    71   103   100    1
    72   101   107   am
    73   101   100    1
    74   115   113   am
    75    97    98    1
    76    97    96    1
    77    59    57    1
    78   100    99    1
    79    88    87   ar
    80    56    57    1
    81    56    53    1
    82    95    96    1
    83    95    94    1
    84    54    53    1
    85    54    55    2
    86    53    52    1
    87   113   114    2
    88   113   112    1
    89    87    89   ar
    90    87    86    1
    91    85    86    1
    92    85    82    1
    93    94    91    1
    94    81    82    1
    95   111   112    1
    96    46    45    1
    97    46    47    1
    98    90    91    1
    99    90    83   am
   100    45    42    1
   101    82    83    1
   102    91    92    1
   103    83    84    2
   104    48    47    1
   105    48    49    2
   106    93    92    2
   107    42    43    1
   108    42    41    1
   109    51    49    1
   110    49    50    1
   111    43    44    2
