@<TRIPOS>MOLECULE
tmp/2hw2A01.pdb
 209 201 0 0 0
SMALL
GASTEIGER

@<TRIPOS>ATOM
      1  N         -2.4260    4.2570  -11.7550 N.3     3  PRO3       -0.2102
      2  CA        -3.3020    3.6940  -12.7880 C.3     3  PRO3        0.1504
      3  C         -2.7500    2.3760  -13.2890 C.2     3  PRO3        0.2575
      4  O         -1.5320    2.2230  -13.4330 O.2     3  PRO3       -0.2718
      5  CB        -3.2780    4.7420  -13.9210 C.3     3  PRO3        0.0282
      6  CG        -2.7360    5.9500  -13.3110 C.3     3  PRO3        0.0208
      7  CD        -1.9360    5.5960  -12.1050 C.3     3  PRO3        0.0893
      8  N         -3.6370    1.4040  -13.4990 N.am    4  PHE4       -0.1977
      9  CA        -3.2890    0.1480  -14.1750 C.3     4  PHE4        0.1639
     10  C         -2.5620   -0.8080  -13.2450 C.2     4  PHE4        0.2290
     11  O         -2.1900   -1.8640  -13.6750 O.2     4  PHE4       -0.2864
     12  CB        -2.5140    0.3590  -15.5050 C.3     4  PHE4        0.0560
     13  CG        -2.9650    1.5610  -16.3100 C.ar    4  PHE4       -0.0200
     14  CD1       -2.0240    2.4500  -16.8290 C.ar    4  PHE4       -0.0042
     15  CD2       -4.3190    1.8020  -16.5620 C.ar    4  PHE4       -0.0042
     16  CE1       -2.4140    3.5480  -17.5740 C.ar    4  PHE4       -0.0003
     17  CE2       -4.7420    2.9350  -17.3140 C.ar    4  PHE4       -0.0003
     18  CZ        -3.7600    3.8120  -17.8030 C.ar    4  PHE4       -0.0000
     19  N        -23.7120    8.3230  -13.5000 N.3    34  PHE34      -0.1241
     20  CA       -23.2030    9.2510  -14.5290 C.3    34  PHE34       0.1605
     21  C        -24.2910    9.8000  -15.4390 C.2    34  PHE34       0.2264
     22  O        -23.9980   10.7260  -16.2280 O.2    34  PHE34      -0.2867
     23  CB       -22.1430    8.5650  -15.3810 C.3    34  PHE34       0.0534
     24  CG       -20.9270    8.2140  -14.5800 C.ar   34  PHE34      -0.0203
     25  CD1      -20.7780    6.9600  -14.0510 C.ar   34  PHE34      -0.0042
     26  CD2      -19.9790    9.2170  -14.3080 C.ar   34  PHE34      -0.0042
     27  CE1      -19.6770    6.6670  -13.2510 C.ar   34  PHE34      -0.0003
     28  CE2      -18.8900    8.9540  -13.4930 C.ar   34  PHE34      -0.0003
     29  CZ       -18.7400    7.6800  -12.9740 C.ar   34  PHE34      -0.0000
     30  N         -6.8070    2.0910   -8.3380 N.3    50  ASP50      -0.1225
     31  CA        -7.0250    3.4110   -8.9060 C.3    50  ASP50       0.1805
     32  C         -8.4790    3.5010   -9.4510 C.2    50  ASP50       0.2597
     33  O         -9.1480    4.5170   -9.2630 O.2    50  ASP50      -0.2718
     34  CB        -6.0560    3.6740  -10.0170 C.3    50  ASP50       0.1424
     35  CG        -6.0740    5.1430  -10.4630 C.2    50  ASP50       0.3668
     36  OD1       -5.7990    6.0030   -9.6080 O.co2  50  ASP50      -0.2456
     37  OD2       -6.3510    5.4130  -11.6330 O.co2  50  ASP50      -0.2456
     38  N         -8.9380    2.4930  -10.1970 N.am   51  ALA51      -0.1979
     39  CA       -10.2970    2.5620  -10.7620 C.3    51  ALA51       0.1597
     40  C        -11.3230    2.5110   -9.6340 C.2    51  ALA51       0.2287
     41  O        -12.3740    3.1730   -9.7300 O.2    51  ALA51      -0.2864
     42  CB       -10.5370    1.4410  -11.7280 C.3    51  ALA51       0.0319
     43  N        -11.5560    5.9990   -8.1270 N.3    54  TRP54      -0.1227
     44  CA       -12.4230    6.8360   -8.9560 C.3    54  TRP54       0.1737
     45  C        -13.8570    6.4540   -8.7900 C.2    54  TRP54       0.2596
     46  O        -14.7480    7.3500   -8.8390 O.2    54  TRP54      -0.2718
     47  CB       -12.0700    6.7020  -10.4070 C.3    54  TRP54       0.0564
     48  CG       -10.7860    7.4390  -10.8070 C.ar   54  TRP54       0.0003
     49  CD1       -9.5780    6.9130  -11.2630 C.ar   54  TRP54       0.0946
     50  CD2      -10.6000    8.8820  -10.7730 C.ar   54  TRP54       0.0152
     51  NE1       -8.6770    7.9530  -11.5200 N.ar   54  TRP54      -0.2442
     52  CE2       -9.2910    9.1550  -11.2340 C.ar   54  TRP54       0.0810
     53  CE3      -11.4290    9.9630  -10.3780 C.ar   54  TRP54       0.0012
     54  CZ2       -8.8010   10.4590  -11.3070 C.ar   54  TRP54       0.0191
     55  CZ3      -10.9060   11.2230  -10.4220 C.ar   54  TRP54       0.0001
     56  CH2       -9.6220   11.4780  -10.9060 C.ar   54  TRP54       0.0015
     57  N        -14.1770    5.1450   -8.6500 N.am   55  GLY55      -0.1957
     58  CA       -15.6190    4.7920   -8.4870 C.3    55  GLY55       0.1869
     59  C        -16.1960    5.3950   -7.2220 C.2    55  GLY55       0.2309
     60  O        -17.3340    5.9030   -7.2240 O.2    55  GLY55      -0.2863
     61  N        -16.4020    9.3830   -7.7060 N.3    58  LEU58      -0.1245
     62  CA       -17.3260    9.9000   -8.7130 C.3    58  LEU58       0.1561
     63  C        -18.7620    9.4060   -8.4750 C.2    58  LEU58       0.2260
     64  O        -19.6900    9.8750   -9.1530 O.2    58  LEU58      -0.2867
     65  CB       -16.8300    9.5190  -10.1230 C.3    58  LEU58       0.0270
     66  CG       -15.4920   10.1330  -10.5230 C.3    58  LEU58       0.0019
     67  CD1      -15.0850    9.5280  -11.8590 C.3    58  LEU58       0.0001
     68  CD2      -15.4950   11.6720  -10.6020 C.3    58  LEU58       0.0001
     69  N        -15.6160   -4.0300  -18.9650 N.3    79  ASP79      -0.1239
     70  CA       -16.4620   -2.8510  -19.0290 C.3    79  ASP79       0.1674
     71  C        -16.1500   -2.0840  -20.3100 C.2    79  ASP79       0.2266
     72  O        -15.0540   -1.5060  -20.4470 O.2    79  ASP79      -0.2867
     73  CB       -16.0390   -2.0050  -17.8210 C.3    79  ASP79       0.1410
     74  CG       -16.7710   -0.6600  -17.6990 C.2    79  ASP79       0.3668
     75  OD1      -17.5220   -0.2750  -18.6580 O.co2  79  ASP79      -0.2456
     76  OD2      -16.6070   -0.0130  -16.6290 O.co2  79  ASP79      -0.2456
     77  N        -16.9680    0.7460  -21.3180 N.3    81  ASN81      -0.1225
     78  CA       -16.6900    2.2190  -21.2280 C.3    81  ASN81       0.1785
     79  C        -15.1950    2.5320  -21.1620 C.2    81  ASN81       0.2597
     80  O        -14.7740    3.6310  -21.5220 O.2    81  ASN81      -0.2718
     81  CB       -17.3810    2.8470  -20.0110 C.3    81  ASN81       0.1169
     82  CG       -18.8730    2.7390  -20.1310 C.2    81  ASN81       0.2627
     83  OD1      -19.4730    3.4400  -20.9140 O.2    81  ASN81      -0.2716
     84  ND2      -19.4630    1.7370  -19.4640 N.am   81  ASN81      -0.0877
     85  N        -14.4040    1.5340  -20.7500 N.am   82  VAL82      -0.1980
     86  CA       -12.9660    1.8000  -20.5710 C.3    82  VAL82       0.1595
     87  C        -12.0970    0.7140  -21.2500 C.2    82  VAL82       0.2287
     88  O        -10.9320    0.5710  -20.9090 O.2    82  VAL82      -0.2864
     89  CB       -12.5770    2.0180  -19.0780 C.3    82  VAL82       0.0276
     90  CG1      -13.2560    3.3480  -18.6010 C.3    82  VAL82       0.0022
     91  CG2      -12.9620    0.8000  -18.2290 C.3    82  VAL82       0.0022
     92  N        -11.0380    1.9380  -25.6300 N.3    85  LYS85      -0.1231
     93  CA       -11.5650    3.3160  -25.8110 C.3    85  LYS85       0.1693
     94  C        -10.3330    4.2140  -25.8890 C.2    85  LYS85       0.2592
     95  O         -9.7090    4.3100  -26.9520 O.2    85  LYS85      -0.2718
     96  CB       -12.5430    3.6800  -24.6680 C.3    85  LYS85       0.0285
     97  CG       -13.8600    2.9370  -24.8390 C.3    85  LYS85       0.0035
     98  CD       -14.5820    3.2550  -26.1330 C.3    85  LYS85       0.0206
     99  CE       -15.9740    2.5280  -26.1210 C.3    85  LYS85       0.1093
    100  NZ       -15.8950    1.0070  -26.1640 N.3    85  LYS85      -0.1314
    101  N         -9.9220    4.7990  -24.7710 N.am   86  LYS86      -0.1966
    102  CA        -8.7300    5.6470  -24.8220 C.3    86  LYS86       0.1728
    103  C         -7.4590    4.8300  -25.0060 C.2    86  LYS86       0.2616
    104  O         -6.4690    5.3380  -25.5250 O.2    86  LYS86      -0.2715
    105  CB        -8.5870    6.5430  -23.5820 C.3    86  LYS86       0.0311
    106  CG        -9.5930    7.7120  -23.5350 C.3    86  LYS86       0.0038
    107  CD        -8.9510    8.9780  -22.8970 C.3    86  LYS86       0.0206
    108  CE        -8.3270    8.7410  -21.4960 C.3    86  LYS86       0.1093
    109  NZ        -7.0070    9.3870  -21.1040 N.3    86  LYS86      -0.1314
    110  N         -7.4750    3.5880  -24.5540 N.am   87  LEU87      -0.1977
    111  CA        -6.3020    2.7140  -24.6670 C.3    87  LEU87       0.1596
    112  C         -6.6700    1.3250  -25.1630 C.2    87  LEU87       0.2287
    113  O         -7.8180    0.8570  -24.9530 O.2    87  LEU87      -0.2864
    114  CB        -5.6500    2.6080  -23.2930 C.3    87  LEU87       0.0297
    115  CG        -5.2540    3.8990  -22.5690 C.3    87  LEU87       0.0022
    116  CD1       -4.7310    3.6520  -21.1820 C.3    87  LEU87       0.0001
    117  CD2       -4.1560    4.6250  -23.3580 C.3    87  LEU87       0.0001
    118  N         -6.7770   -1.9200  -19.5270 N.3    91  PRO91      -0.2102
    119  CA        -5.6350   -1.7660  -18.5900 C.3    91  PRO91       0.1504
    120  C         -6.1080   -1.3930  -17.1860 C.2    91  PRO91       0.2576
    121  O         -5.3390   -1.6030  -16.2770 O.2    91  PRO91      -0.2718
    122  CB        -4.7980   -0.6280  -19.2030 C.3    91  PRO91       0.0282
    123  CG        -5.7820    0.1600  -19.9470 C.3    91  PRO91       0.0208
    124  CD        -6.7390   -0.8710  -20.5760 C.3    91  PRO91       0.0893
    125  N         -7.3100   -0.7980  -16.9990 N.am   92  THR92      -0.1953
    126  CA        -7.7730   -0.4980  -15.6250 C.3    92  THR92       0.1897
    127  C         -8.3900   -1.7370  -14.9610 C.2    92  THR92       0.2313
    128  O         -8.8350   -1.6780  -13.8120 O.2    92  THR92      -0.2863
    129  CB        -8.7630    0.6690  -15.6160 C.3    92  THR92       0.1794
    130  OG1      -10.0210    0.2440  -16.1440 O.3    92  THR92      -0.2208
    131  CG2       -8.2200    1.9140  -16.3290 C.3    92  THR92       0.0378
    132  N        -11.2870   -3.1490  -15.4330 N.3    94  SER94      -0.1217
    133  CA       -12.6340   -2.8150  -15.0480 C.3    94  SER94       0.1889
    134  C        -13.6020   -3.7710  -15.6990 C.2    94  SER94       0.2288
    135  O        -13.5010   -4.0260  -16.8930 O.2    94  SER94      -0.2866
    136  CB       -12.9970   -1.3830  -15.4840 C.3    94  SER94       0.2089
    137  OG       -12.2270   -0.4510  -14.7430 O.3    94  SER94      -0.2183
    138  N        -10.4140   18.0310  -11.8720 N.3   120  ALA120     -0.1231
    139  CA       -10.2320   18.0360  -13.3430 C.3   120  ALA120      0.1694
    140  C        -11.1190   16.9630  -13.9670 C.2   120  ALA120      0.2591
    141  O        -11.7260   17.1540  -15.0330 O.2   120  ALA120     -0.2718
    142  CB        -8.8020   17.8190  -13.7040 C.3   120  ALA120      0.0304
    143  N        -11.1950   15.8180  -13.3170 N.am  121  MET121     -0.1979
    144  CA       -12.0220   14.7300  -13.8480 C.3   121  MET121      0.1605
    145  C        -13.4640   15.1590  -13.8150 C.2   121  MET121      0.2287
    146  O        -14.1880   14.9680  -14.8120 O.2   121  MET121     -0.2864
    147  CB       -11.8060   13.4960  -12.9820 C.3   121  MET121      0.0413
    148  CG       -12.6960   12.2970  -13.3660 C.3   121  MET121      0.0598
    149  SD       -12.3670   11.5610  -14.9590 S.3   121  MET121     -0.1393
    150  CE       -10.9340   10.5700  -14.5790 C.3   121  MET121      0.0692
    151  N        -14.1580   17.7050  -16.5010 N.3   124  GLY124     -0.1210
    152  CA       -14.0920   17.0140  -17.7820 C.3   124  GLY124      0.1956
    153  C        -15.3700   16.2620  -18.0690 C.2   124  GLY124      0.2611
    154  O        -15.9330   16.3620  -19.1840 O.2   124  GLY124     -0.2717
    155  N        -15.9290   15.6390  -17.0610 N.am  125  LEU125     -0.1979
    156  CA       -17.1870   14.9310  -17.3030 C.3   125  LEU125      0.1596
    157  C        -18.3490   15.8720  -17.5150 C.2   125  LEU125      0.2287
    158  O        -19.1660   15.6100  -18.3900 O.2   125  LEU125     -0.2864
    159  CB       -17.4970   14.0230  -16.1130 C.3   125  LEU125      0.0297
    160  CG       -16.5430   12.8370  -16.0260 C.3   125  LEU125      0.0022
    161  CD1      -16.6150   12.2310  -14.6030 C.3   125  LEU125      0.0001
    162  CD2      -16.9200   11.8440  -17.1450 C.3   125  LEU125      0.0001
    163  N        -18.0710   16.9570  -21.1020 N.3   128  LEU128     -0.1231
    164  CA       -18.4980   15.9410  -22.0780 C.3   128  LEU128      0.1693
    165  C        -19.9910   15.9710  -22.1140 C.2   128  LEU128      0.2591
    166  O        -20.5700   15.8500  -23.1840 O.2   128  LEU128     -0.2718
    167  CB       -17.9970   14.5600  -21.6300 C.3   128  LEU128      0.0284
    168  CG       -16.5140   14.2080  -21.8880 C.3   128  LEU128      0.0019
    169  CD1      -16.1190   12.8910  -21.2360 C.3   128  LEU128      0.0001
    170  CD2      -16.1660   14.1160  -23.3620 C.3   128  LEU128      0.0001
    171  N        -20.6470   16.0950  -20.9560 N.am  129  ARG129     -0.1980
    172  CA       -22.1160   16.1980  -20.9500 C.3   129  ARG129      0.1597
    173  C        -22.6440   17.4010  -21.6910 C.2   129  ARG129      0.2287
    174  O        -23.6440   17.3150  -22.4530 O.2   129  ARG129     -0.2864
    175  CB       -22.6400   16.2820  -19.5370 C.3   129  ARG129      0.0334
    176  CG       -22.4280   15.0470  -18.7960 C.3   129  ARG129      0.0492
    177  CD       -23.4380   14.9050  -17.6450 C.3   129  ARG129      0.2205
    178  NE       -22.9990   14.0100  -16.5570 N.pl3 129  ARG129     -0.0865
    179  CZ       -21.9460   13.1770  -16.5500 C.cat 129  ARG129      0.5346
    180  NH1      -21.0990   13.0540  -17.5800 N.pl3 129  ARG129      0.1354
    181  NH2      -21.7360   12.4570  -15.4700 N.pl3 129  ARG129      0.1354
    182  N        -21.3110   14.3130  -25.4210 N.3   133  LEU133     -0.1231
    183  CA       -20.3250   13.2530  -25.7590 C.3   133  LEU133      0.1693
    184  C        -20.1780   12.1810  -24.6230 C.2   133  LEU133      0.2592
    185  O        -19.3760   11.2490  -24.7020 O.2   133  LEU133     -0.2718
    186  CB       -18.9470   13.8790  -26.1210 C.3   133  LEU133      0.0284
    187  CG       -18.6990   14.7090  -27.4120 C.3   133  LEU133      0.0019
    188  CD1      -18.3210   13.7210  -28.5260 C.3   133  LEU133      0.0001
    189  CD2      -19.9140   15.4620  -27.8600 C.3   133  LEU133      0.0001
    190  N        -20.9800   12.3000  -23.5760 N.am  134  ALA134     -0.1966
    191  CA       -20.8120   11.3960  -22.4050 C.3   134  ALA134      0.1728
    192  C        -21.6280   10.1110  -22.5730 C.2   134  ALA134      0.2616
    193  O        -22.5080    9.8430  -21.7240 O.2   134  ALA134     -0.2715
    194  CB       -21.1930   12.0930  -21.1070 C.3   134  ALA134      0.0334
    195  N        -21.3280    9.3210  -23.6390 N.am  135  VAL135     -0.1963
    196  CA       -22.1710    8.1820  -23.9300 C.3   135  VAL135      0.1727
    197  C        -21.9270    7.1360  -22.8430 C.2   135  VAL135      0.2616
    198  O        -20.7300    6.8500  -22.5160 O.2   135  VAL135     -0.2715
    199  CB       -21.8490    7.5880  -25.2910 C.3   135  VAL135      0.0290
    200  CG1      -22.6730    6.3680  -25.5400 C.3   135  VAL135      0.0023
    201  CG2      -22.2290    8.5680  -26.3940 C.3   135  VAL135      0.0023
    202  N        -22.9930    6.6230  -22.1930 N.am  136  ILE136     -0.1977
    203  CA       -22.8820    5.5740  -21.1570 C.3   136  ILE136      0.1596
    204  C        -23.2470    4.2220  -21.7780 C.2   136  ILE136      0.2287
    205  O        -24.3920    4.0180  -22.2600 O.2   136  ILE136     -0.2864
    206  CB       -23.8050    5.8740  -19.9560 C.3   136  ILE136      0.0276
    207  CG1      -23.1870    6.9970  -19.0380 C.3   136  ILE136      0.0022
    208  CG2      -23.8860    4.5950  -19.0270 C.3   136  ILE136      0.0022
    209  CD1      -23.2690    8.3740  -19.4840 C.3   136  ILE136      0.0001
@<TRIPOS>BOND
     1   188   187    1
     2   189   187    1
     3   187   186    1
     4    95    94    2
     5   201   199    1
     6   100    99    1
     7    98    99    1
     8    98    97    1
     9   186   183    1
    10    94    93    1
    11    94   101   am
    12    93    92    1
    13    93    96    1
    14   183   182    1
    15   183   184    1
    16   200   199    1
    17   104   103    2
    18   199   196    1
    19   112   113    2
    20   112   111    1
    21   103   102    1
    22   103   110   am
    23    97    96    1
    24   102   101    1
    25   102   105    1
    26   185   184    2
    27   111   110    1
    28   111   114    1
    29   184   190   am
    30   196   195    1
    31   196   197    1
    32   195   192   am
    33   105   106    1
    34   190   191    1
    35   106   107    1
    36   170   168    1
    37   117   115    1
    38   114   115    1
    39   166   165    2
    40   107   108    1
    41   197   198    2
    42   197   202   am
    43   192   191    1
    44   192   193    2
    45   115   116    1
    46   174   173    2
    47   191   194    1
    48   205   204    2
    49   202   203    1
    50   165   164    1
    51   165   171   am
    52   164   167    1
    53   164   163    1
    54   168   167    1
    55   168   169    1
    56   204   203    1
    57   173   172    1
    58    80    79    2
    59   108   109    1
    60    77    78    1
    61    87    88    2
    62    87    86    1
    63    78    79    1
    64    78    81    1
    65    79    85   am
    66   203   206    1
    67   171   172    1
    68   172   175    1
    69    83    82    2
    70    85    86    1
    71   124   123    1
    72   124   118    1
    73    86    89    1
    74    72    71    2
    75    71    70    1
    76    82    81    1
    77    82    84   am
    78   206   207    1
    79   206   208    1
    80   123   122    1
    81   175   176    1
    82   118   119    1
    83   209   207    1
    84   122   119    1
    85   154   153    2
    86    89    90    1
    87    89    91    1
    88    70    69    1
    89    70    73    1
    90   176   177    1
    91    75    74   ar
    92   119   120    1
    93   158   157    2
    94   153   152    1
    95   153   155   am
    96    73    74    1
    97    18    16   ar
    98    18    17   ar
    99   152   151    1
   100    74    76   ar
   101   177   178    1
   102   180   179    1
   103    16    14   ar
   104   157   156    1
   105    17    15   ar
   106   156   155    1
   107   156   159    1
   108   120   125   am
   109   120   121    2
   110   162   160    1
   111   125   126    1
   112   135   134    2
   113    14    13   ar
   114    15    13   ar
   115   178   179    2
   116   179   181    1
   117   131   129    1
   118    13    12    1
   119    22    21    2
   120   130   129    1
   121   159   160    1
   122   160   161    1
   123   134   133    1
   124   126   129    1
   125   126   127    1
   126    12     9    1
   127   136   133    1
   128   136   137    1
   129    21    20    1
   130   132   133    1
   131    23    24    1
   132    23    20    1
   133   141   140    2
   134   127   128    2
   135   149   150    1
   136   149   148    1
   137   146   145    2
   138    24    26   ar
   139    24    25   ar
   140    20    19    1
   141    26    28   ar
   142     9     8    1
   143     9    10    1
   144    25    27   ar
   145   140   139    1
   146   140   143   am
   147     5     6    1
   148     5     2    1
   149   144   145    1
   150   144   143    1
   151   144   147    1
   152   142   139    1
   153    11    10    2
   154     8     3   am
   155    28    29   ar
   156     4     3    2
   157   148   147    1
   158   139   138    1
   159     6     7    1
   160     3     2    1
   161    27    29   ar
   162     2     1    1
   163     7     1    1
   164    67    66    1
   165    42    39    1
   166    37    35   ar
   167    51    49   ar
   168    51    52   ar
   169    54    52   ar
   170    54    56   ar
   171    49    48   ar
   172    52    50   ar
   173    56    55   ar
   174    48    50   ar
   175    48    47    1
   176    50    53   ar
   177    39    38    1
   178    39    40    1
   179    68    66    1
   180    66    65    1
   181    35    34    1
   182    35    36   ar
   183    55    53   ar
   184    47    44    1
   185    38    32   am
   186    65    62    1
   187    34    31    1
   188    41    40    2
   189    32    33    2
   190    32    31    1
   191    64    63    2
   192    44    45    1
   193    44    43    1
   194    31    30    1
   195    46    45    2
   196    45    57   am
   197    62    63    1
   198    62    61    1
   199    57    58    1
   200    58    59    1
   201    60    59    2
