@<TRIPOS>MOLECULE
tmp/2hw5C00.pdb
 120 114 0 0 0
SMALL
GASTEIGER

@<TRIPOS>ATOM
      1  N        -28.0980   39.5060   46.4680 N.3    24  ARG24      -0.1245
      2  CA       -26.8660   39.6090   45.6980 C.3    24  ARG24       0.1563
      3  C        -26.1540   38.2510   45.7820 C.2    24  ARG24       0.2260
      4  O        -25.0250   38.1470   46.2540 O.2    24  ARG24      -0.2867
      5  CB       -26.0120   40.7570   46.2430 C.3    24  ARG24       0.0307
      6  CG       -24.9970   41.2860   45.2570 C.3    24  ARG24       0.0489
      7  CD       -23.9650   42.1910   45.9130 C.3    24  ARG24       0.2205
      8  NE       -22.7240   42.1740   45.1410 N.pl3  24  ARG24      -0.0865
      9  CZ       -21.5260   42.5270   45.5980 C.cat  24  ARG24       0.5346
     10  NH1      -21.3690   42.9560   46.8350 N.pl3  24  ARG24       0.1354
     11  NH2      -20.4700   42.4400   44.8030 N.pl3  24  ARG24       0.1354
     12  N        -24.7820   35.9690   43.8320 N.3    26  LYS26      -0.1231
     13  CA       -23.5340   35.6350   43.1410 C.3    26  LYS26       0.1693
     14  C        -22.3250   36.0500   43.9610 C.2    26  LYS26       0.2592
     15  O        -21.2440   35.5190   43.7590 O.2    26  LYS26      -0.2718
     16  CB       -23.4830   36.2670   41.7380 C.3    26  LYS26       0.0285
     17  CG       -24.6990   35.9540   40.9070 C.3    26  LYS26       0.0035
     18  CD       -24.5990   34.6030   40.2740 C.3    26  LYS26       0.0206
     19  CE       -25.7560   34.2680   39.3430 C.3    26  LYS26       0.1093
     20  NZ       -27.0770   34.3410   39.9540 N.3    26  LYS26      -0.1314
     21  N        -22.5050   36.9880   44.8880 N.am   27  ALA27      -0.1966
     22  CA       -21.4260   37.3920   45.7910 C.3    27  ALA27       0.1728
     23  C        -21.7410   37.0410   47.2540 C.2    27  ALA27       0.2616
     24  O        -21.1770   37.6340   48.1730 O.2    27  ALA27      -0.2715
     25  CB       -21.1490   38.8790   45.6350 C.3    27  ALA27       0.0334
     26  N        -22.6300   36.0650   47.4500 N.am   28  LEU28      -0.1977
     27  CA       -23.0870   35.6310   48.7770 C.3    28  LEU28       0.1596
     28  C        -23.5390   36.8060   49.6430 C.2    28  LEU28       0.2287
     29  O        -23.1920   36.9070   50.8230 O.2    28  LEU28      -0.2864
     30  CB       -21.9910   34.8170   49.4800 C.3    28  LEU28       0.0297
     31  CG       -21.6660   33.4720   48.8210 C.3    28  LEU28       0.0022
     32  CD1      -20.4610   32.8080   49.4470 C.3    28  LEU28       0.0001
     33  CD2      -22.8770   32.5600   48.9160 C.3    28  LEU28       0.0001
     34  N        -22.5400   39.8050   49.8610 N.3    30  ALA30      -0.1245
     35  CA       -21.4840   40.6510   50.4300 C.3    30  ALA30       0.1562
     36  C        -21.9200   42.1170   50.4430 C.2    30  ALA30       0.2260
     37  O        -22.4070   42.6400   49.4430 O.2    30  ALA30      -0.2867
     38  CB       -20.1630   40.4830   49.6570 C.3    30  ALA30       0.0290
     39  N        -28.3880   29.7990   51.0320 N.3    62  LYS62      -0.1245
     40  CA       -26.9690   29.4610   51.1840 C.3    62  LYS62       0.1561
     41  C        -26.2200   30.4900   52.0340 C.2    62  LYS62       0.2260
     42  O        -25.2190   30.1580   52.6930 O.2    62  LYS62      -0.2867
     43  CB       -26.2970   29.3170   49.8110 C.3    62  LYS62       0.0271
     44  CG       -24.9030   28.6780   49.8750 C.3    62  LYS62       0.0035
     45  CD       -24.2620   28.4850   48.4880 C.3    62  LYS62       0.0206
     46  CE       -22.7350   28.6240   48.5810 C.3    62  LYS62       0.1093
     47  NZ       -22.0560   28.3960   47.2760 N.3    62  LYS62      -0.1314
     48  N        -22.1490   37.0280   53.5010 N.3    66  ALA66      -0.1231
     49  CA       -20.8350   36.4500   53.7660 C.3    66  ALA66       0.1694
     50  C        -19.8180   37.4860   54.2230 C.2    66  ALA66       0.2593
     51  O        -18.6550   37.1610   54.4250 O.2    66  ALA66      -0.2718
     52  CB       -20.3280   35.7500   52.5260 C.3    66  ALA66       0.0304
     53  N        -20.2340   38.7370   54.3720 N.am   67  GLY67      -0.1942
     54  CA       -19.3610   39.7550   54.9430 C.3    67  GLY67       0.2014
     55  C        -19.4890   41.0990   54.2780 C.2    67  GLY67       0.2639
     56  O        -20.4150   41.3370   53.5110 O.2    67  GLY67      -0.2714
     57  N        -18.5710   41.9920   54.6260 N.am   68  ALA68      -0.1963
     58  CA       -18.4250   43.2580   53.9410 C.3    68  ALA68       0.1728
     59  C        -17.7220   42.9490   52.6330 C.2    68  ALA68       0.2616
     60  O        -16.9270   42.0070   52.5610 O.2    68  ALA68      -0.2715
     61  CB       -17.6010   44.2120   54.7780 C.3    68  ALA68       0.0334
     62  N        -18.0000   43.7300   51.5970 N.am   69  ASP69      -0.1957
     63  CA       -17.4060   43.4650   50.3050 C.3    69  ASP69       0.1840
     64  C        -15.9130   43.7120   50.3830 C.2    69  ASP69       0.2622
     65  O        -15.4720   44.8520   50.5090 O.2    69  ASP69      -0.2715
     66  CB       -18.0510   44.3140   49.2150 C.3    69  ASP69       0.1450
     67  CG       -17.5630   43.9440   47.8360 C.2    69  ASP69       0.3671
     68  OD1      -16.3360   44.0120   47.5890 O.co2  69  ASP69      -0.2456
     69  OD2      -18.4040   43.5810   46.9960 O.co2  69  ASP69      -0.2456
     70  N        -15.1450   42.6300   50.2890 N.am   70  ILE70      -0.1963
     71  CA       -13.6790   42.6760   50.3950 C.3    70  ILE70       0.1727
     72  C        -13.0150   43.3660   49.1980 C.2    70  ILE70       0.2616
     73  O        -12.0070   44.0530   49.3480 O.2    70  ILE70      -0.2715
     74  CB       -13.1010   41.2550   50.6290 C.3    70  ILE70       0.0290
     75  CG1      -13.4840   40.7770   52.0370 C.3    70  ILE70       0.0022
     76  CG2      -11.5750   41.2440   50.4740 C.3    70  ILE70       0.0023
     77  CD1      -13.4340   39.2900   52.2370 C.3    70  ILE70       0.0001
     78  N        -13.5890   43.2170   48.0150 N.am   71  LYS71      -0.1977
     79  CA       -13.0550   43.9100   46.8530 C.3    71  LYS71       0.1596
     80  C        -13.1540   45.4420   47.0130 C.2    71  LYS71       0.2287
     81  O        -12.2100   46.1550   46.6840 O.2    71  LYS71      -0.2864
     82  CB       -13.7190   43.4190   45.5550 C.3    71  LYS71       0.0298
     83  CG       -13.4980   41.9160   45.3100 C.3    71  LYS71       0.0038
     84  CD       -14.4670   41.3050   44.2780 C.3    71  LYS71       0.0206
     85  CE       -14.4940   39.7620   44.3680 C.3    71  LYS71       0.1093
     86  NZ       -14.8220   39.0930   43.0650 N.3    71  LYS71      -0.1314
     87  N        -24.5950   31.0490   55.6350 N.3   107  TYR107     -0.1241
     88  CA       -23.4810   31.8090   56.2050 C.3   107  TYR107      0.1605
     89  C        -23.9080   33.1810   56.7020 C.2   107  TYR107      0.2264
     90  O        -24.6000   33.9150   55.9920 O.2   107  TYR107     -0.2867
     91  CB       -22.3690   32.0490   55.1830 C.3   107  TYR107      0.0534
     92  CG       -21.8100   30.8320   54.4940 C.ar  107  TYR107     -0.0201
     93  CD1      -21.2860   29.7670   55.2140 C.ar  107  TYR107     -0.0009
     94  CD2      -21.7670   30.7670   53.1110 C.ar  107  TYR107     -0.0009
     95  CE1      -20.7590   28.6520   54.5620 C.ar  107  TYR107      0.0417
     96  CE2      -21.2430   29.6720   52.4590 C.ar  107  TYR107      0.0417
     97  CZ       -20.7350   28.6200   53.1830 C.ar  107  TYR107      0.1957
     98  OH       -20.2070   27.5350   52.4980 O.3   107  TYR107     -0.2866
     99  N        -21.1970   35.5650   58.0700 N.3   109  PHE109     -0.1241
    100  CA       -19.7770   35.7320   58.4050 C.3   109  PHE109      0.1605
    101  C        -19.3620   37.1940   58.4140 C.2   109  PHE109      0.2264
    102  O        -19.7520   37.9520   57.5280 O.2   109  PHE109     -0.2867
    103  CB       -18.8990   35.0190   57.3770 C.3   109  PHE109      0.0534
    104  CG       -18.8940   33.5230   57.4790 C.ar  109  PHE109     -0.0203
    105  CD1      -19.7930   32.8320   58.2860 C.ar  109  PHE109     -0.0042
    106  CD2      -17.9850   32.8030   56.7240 C.ar  109  PHE109     -0.0042
    107  CE1      -19.7810   31.4560   58.3510 C.ar  109  PHE109     -0.0003
    108  CE2      -17.9600   31.4200   56.7720 C.ar  109  PHE109     -0.0003
    109  CZ       -18.8740   30.7440   57.5840 C.ar  109  PHE109     -0.0000
    110  N        -15.9000   28.9700   62.9000 N.3   167  ARG167     -0.1245
    111  CA       -17.3490   29.0920   62.8290 C.3   167  ARG167      0.1563
    112  C        -18.0600   28.2770   63.9030 C.2   167  ARG167      0.2260
    113  O        -17.5130   27.3200   64.4370 O.2   167  ARG167     -0.2867
    114  CB       -17.8860   28.7240   61.4430 C.3   167  ARG167      0.0307
    115  CG       -16.9480   27.9630   60.4890 C.3   167  ARG167      0.0489
    116  CD       -17.2720   28.3910   59.0800 C.3   167  ARG167      0.2205
    117  NE       -16.8440   27.4830   58.0190 N.pl3 167  ARG167     -0.0865
    118  CZ       -15.9330   27.7510   57.0770 C.cat 167  ARG167      0.5346
    119  NH1      -15.2680   28.9010   57.0200 N.pl3 167  ARG167      0.1354
    120  NH2      -15.6820   26.8390   56.1610 N.pl3 167  ARG167      0.1354
@<TRIPOS>BOND
     1    19    20    1
     2    19    18    1
     3    18    17    1
     4    17    16    1
     5    16    13    1
     6    86    85    1
     7    13    12    1
     8    13    14    1
     9    15    14    2
    10    14    21   am
    11    84    85    1
    12    84    83    1
    13    11     9    1
    14    21    22    1
    15     8     9    2
    16     8     7    1
    17     6     7    1
    18     6     5    1
    19    83    82    1
    20    82    79    1
    21     9    10    1
    22    25    22    1
    23     2     3    1
    24     2     5    1
    25     2     1    1
    26     3     4    2
    27    22    23    1
    28    81    80    2
    29    79    80    1
    30    79    78    1
    31    69    67   ar
    32    23    26   am
    33    23    24    2
    34    47    46    1
    35    26    27    1
    36    68    67   ar
    37    67    66    1
    38    78    72   am
    39    45    46    1
    40    45    44    1
    41    27    30    1
    42    27    28    1
    43    31    33    1
    44    31    32    1
    45    31    30    1
    46    72    73    2
    47    72    71    1
    48    66    63    1
    49    37    36    2
    50    28    29    2
    51    38    35    1
    52    43    44    1
    53    43    40    1
    54    34    35    1
    55    70    64   am
    56    70    71    1
    57    63    64    1
    58    63    62    1
    59    64    65    2
    60    71    74    1
    61    35    36    1
    62    76    74    1
    63    74    75    1
    64    39    40    1
    65    40    41    1
    66    62    59   am
    67    41    42    2
    68    75    77    1
    69    96    94   ar
    70    96    97   ar
    71    98    97    1
    72    52    49    1
    73    60    59    2
    74    59    58    1
    75    94    92   ar
    76    97    95   ar
    77    48    49    1
    78    56    55    2
    79    49    50    1
    80    58    57    1
    81    58    61    1
    82    50    53   am
    83    50    51    2
    84    55    57   am
    85    55    54    1
    86    53    54    1
    87    92    91    1
    88    92    93   ar
    89    95    93   ar
    90    91    88    1
    91    87    88    1
    92    90    89    2
    93   120   118    1
    94    88    89    1
    95   106   108   ar
    96   106   104   ar
    97   108   109   ar
    98   119   118    1
    99   118   117    2
   100   103   104    1
   101   103   100    1
   102   104   105   ar
   103   102   101    2
   104   109   107   ar
   105   117   116    1
   106    99   100    1
   107   105   107   ar
   108   100   101    1
   109   116   115    1
   110   115   114    1
   111   114   111    1
   112   111   110    1
   113   111   112    1
   114   112   113    2
