@<TRIPOS>MOLECULE
tmp/2hwbA00.pdb
 172 166 0 0 0
SMALL
GASTEIGER

@<TRIPOS>ATOM
      1  N         47.6130   -1.0280  133.4820 N.3    86  TRP86      -0.1241
      2  CA        46.8990    0.2370  133.3870 C.3    86  TRP86       0.1605
      3  C         45.4970   -0.0160  132.8450 C.2    86  TRP86       0.2264
      4  O         45.2760   -0.0360  131.6250 O.2    86  TRP86      -0.2867
      5  CB        47.7050    1.1620  132.4670 C.3    86  TRP86       0.0550
      6  CG        46.8630    2.1810  131.7000 C.ar   86  TRP86       0.0003
      7  CD1       46.0040    3.0730  132.2110 C.ar   86  TRP86       0.0946
      8  CD2       46.8780    2.3410  130.2920 C.ar   86  TRP86       0.0152
      9  NE1       45.4660    3.8150  131.1100 N.ar   86  TRP86      -0.2442
     10  CE2       45.9930    3.3710  129.9940 C.ar   86  TRP86       0.0810
     11  CE3       47.5610    1.7030  129.2500 C.ar   86  TRP86       0.0012
     12  CZ2       45.7550    3.8170  128.6890 C.ar   86  TRP86       0.0191
     13  CZ3       47.3080    2.1570  127.9390 C.ar   86  TRP86       0.0001
     14  CH2       46.4480    3.1650  127.6740 C.ar   86  TRP86       0.0015
     15  N         43.2310    0.4240  131.2920 N.3    88  ILE88      -0.1231
     16  CA        42.9150    1.2610  130.1170 C.3    88  ILE88       0.1692
     17  C         41.8030    2.2660  130.3860 C.2    88  ILE88       0.2592
     18  O         40.7700    1.8990  130.9520 O.2    88  ILE88      -0.2718
     19  CB        42.3870    0.3990  128.9800 C.3    88  ILE88       0.0266
     20  CG1       43.1670   -0.8980  128.8010 C.3    88  ILE88       0.0019
     21  CG2       42.4250    1.1130  127.6290 C.3    88  ILE88       0.0020
     22  CD1       43.7820   -1.0300  127.4100 C.3    88  ILE88       0.0001
     23  N         42.0760    3.4740  129.9130 N.am   89  ASN89      -0.1960
     24  CA        41.1780    4.6430  130.0140 C.3    89  ASN89       0.1819
     25  C         41.9140    5.8630  129.4570 C.2    89  ASN89       0.2621
     26  O         43.1490    5.9510  129.5320 O.2    89  ASN89      -0.2715
     27  CB        40.7980    4.8730  131.4810 C.3    89  ASN89       0.1195
     28  CG        41.7660    5.8010  132.2200 C.2    89  ASN89       0.2630
     29  OD1       41.7430    7.0110  132.0010 O.2    89  ASN89      -0.2716
     30  ND2       42.6230    5.3020  133.0940 N.am   89  ASN89      -0.0877
     31  N         41.1080    6.7560  128.9150 N.am   90  LEU90      -0.1977
     32  CA        41.5770    7.9870  128.2610 C.3    90  LEU90       0.1596
     33  C         41.1510    9.2390  129.0380 C.2    90  LEU90       0.2287
     34  O         41.1330   10.3530  128.4950 O.2    90  LEU90      -0.2864
     35  CB        40.9430    8.0880  126.8700 C.3    90  LEU90       0.0297
     36  CG        41.8720    7.6100  125.7530 C.3    90  LEU90       0.0022
     37  CD1       41.9300    6.0860  125.6300 C.3    90  LEU90       0.0001
     38  CD2       41.4610    8.1230  124.3720 C.3    90  LEU90       0.0001
     39  N         36.1150    6.1300  116.8490 N.3   108  PHE108     -0.1241
     40  CA        37.3820    6.2350  116.1280 C.3   108  PHE108      0.1605
     41  C         38.2010    4.9830  116.2830 C.2   108  PHE108      0.2264
     42  O         37.8800    4.1780  117.1770 O.2   108  PHE108     -0.2867
     43  CB        38.0900    7.5140  116.5820 C.3   108  PHE108      0.0534
     44  CG        38.2480    7.6690  118.0530 C.ar  108  PHE108     -0.0203
     45  CD1       39.0800    6.8380  118.7820 C.ar  108  PHE108     -0.0042
     46  CD2       37.6090    8.6930  118.7370 C.ar  108  PHE108     -0.0042
     47  CE1       39.2540    6.9670  120.1450 C.ar  108  PHE108     -0.0003
     48  CE2       37.7510    8.8250  120.1150 C.ar  108  PHE108     -0.0003
     49  CZ        38.5680    7.9440  120.8090 C.ar  108  PHE108     -0.0000
     50  N         42.1040    3.5520  117.1060 N.3   110  SER110     -0.1217
     51  CA        43.1870    4.1300  117.8910 C.3   110  SER110      0.1889
     52  C         44.4910    3.7050  117.3240 C.2   110  SER110      0.2288
     53  O         44.5830    2.5270  116.9230 O.2   110  SER110     -0.2866
     54  CB        43.1120    3.6620  119.3290 C.3   110  SER110      0.2089
     55  OG        41.7980    4.0910  119.7750 O.3   110  SER110     -0.2183
     56  N         48.1890    3.3750  118.8680 N.3   112  TYR112     -0.1298
     57  CA        49.0060    3.5630  120.0780 C.3   112  TYR112      0.1290
     58  C         50.4710    3.6770  119.7780 C.3   112  TYR112      0.2013
     59  O         50.9280    2.8820  118.8750 O.3   112  TYR112     -0.2188
     60  CB        48.8250    2.3920  120.9850 C.3   112  TYR112      0.0480
     61  CG        47.5090    2.6320  121.6570 C.ar  112  TYR112     -0.0204
     62  CD1       47.3590    3.6070  122.6020 C.ar  112  TYR112     -0.0009
     63  CD2       46.3890    1.8530  121.3420 C.ar  112  TYR112     -0.0009
     64  CE1       46.1380    3.8450  123.2390 C.ar  112  TYR112      0.0417
     65  CE2       45.1570    2.0530  121.9450 C.ar  112  TYR112      0.0417
     66  CZ        45.0570    3.0590  122.9030 C.ar  112  TYR112      0.1957
     67  OH        43.8510    3.2180  123.5370 O.3   112  TYR112     -0.2866
     68  N         54.2550   -5.8820  126.0600 N.3   134  ALA134     -0.1245
     69  CA        52.9380   -5.2860  126.3200 C.3   134  ALA134      0.1562
     70  C         51.8450   -6.2050  125.7720 C.2   134  ALA134      0.2260
     71  O         51.7520   -6.4290  124.5560 O.2   134  ALA134     -0.2867
     72  CB        52.8380   -3.9200  125.6410 C.3   134  ALA134      0.0290
     73  N         47.6190   -7.1140  126.1190 N.3   136  TYR136     -0.1241
     74  CA        46.2710   -6.6130  126.4400 C.3   136  TYR136      0.1605
     75  C         45.3800   -7.7610  126.9220 C.2   136  TYR136      0.2264
     76  O         44.9350   -8.6030  126.1270 O.2   136  TYR136     -0.2867
     77  CB        45.6540   -5.9780  125.1870 C.3   136  TYR136      0.0534
     78  CG        44.1480   -5.7130  125.2980 C.ar  136  TYR136     -0.0201
     79  CD1       43.6740   -4.6580  126.0880 C.ar  136  TYR136     -0.0009
     80  CD2       43.2410   -6.5230  124.6020 C.ar  136  TYR136     -0.0009
     81  CE1       42.2980   -4.4110  126.1790 C.ar  136  TYR136      0.0417
     82  CE2       41.8650   -6.2770  124.6940 C.ar  136  TYR136      0.0417
     83  CZ        41.3940   -5.2200  125.4810 C.ar  136  TYR136      0.1957
     84  OH        40.0580   -4.9790  125.5670 O.3   136  TYR136     -0.2866
     85  N         46.6890  -10.4720  121.8520 N.2   158  PRO158     -0.2571
     86  CA        47.6350   -9.6930  121.0730 C.3   158  PRO158      0.2026
     87  C         48.6650   -9.0800  121.9910 C.2   158  PRO158      0.2684
     88  O         48.2740   -8.3800  122.9760 O.2   158  PRO158     -0.2709
     89  CB        46.7770   -8.6510  120.3960 C.2   158  PRO158      0.0085
     90  CG        45.3360   -8.8820  120.8260 C.2   158  PRO158      0.0180
     91  CD        45.2910  -10.0510  121.7600 C.2   158  PRO158      0.0938
     92  N         49.9270   -9.3410  121.6690 N.am  159  SER159     -0.1931
     93  CA        51.0770   -8.8370  122.4500 C.3   159  SER159      0.2055
     94  C         52.2090   -8.3880  121.5160 C.2   159  SER159      0.2642
     95  O         52.3930   -8.9420  120.4220 O.2   159  SER159     -0.2714
     96  CB        51.6120   -9.9390  123.3680 C.3   159  SER159      0.2130
     97  OG        50.6540  -10.2450  124.3700 O.3   159  SER159     -0.2179
     98  N         52.9440   -7.3890  121.9870 N.am  160  VAL160     -0.1977
     99  CA        54.0730   -6.8030  121.2420 C.3   160  VAL160      0.1596
    100  C         55.3330   -6.7510  122.1140 C.2   160  VAL160      0.2287
    101  O         55.2770   -6.3820  123.2970 O.2   160  VAL160     -0.2864
    102  CB        53.7330   -5.3750  120.8060 C.3   160  VAL160      0.0276
    103  CG1       53.0510   -4.5590  121.9060 C.3   160  VAL160      0.0022
    104  CG2       54.9650   -4.5650  120.3960 C.3   160  VAL160      0.0022
    105  N         51.1620    0.4200  116.7770 N.3   170  PHE170     -0.1241
    106  CA        50.1670   -0.3930  116.1540 C.3   170  PHE170      0.1605
    107  C         48.8630    0.3260  116.2300 C.2   170  PHE170      0.2264
    108  O         48.7970    1.4850  116.6570 O.2   170  PHE170     -0.2867
    109  CB        50.0700   -1.6780  116.9200 C.3   170  PHE170      0.0534
    110  CG        49.7110   -1.4020  118.3630 C.ar  170  PHE170     -0.0203
    111  CD1       50.7200   -1.1760  119.3020 C.ar  170  PHE170     -0.0042
    112  CD2       48.3690   -1.3580  118.7270 C.ar  170  PHE170     -0.0042
    113  CE1       50.3780   -0.9320  120.6340 C.ar  170  PHE170     -0.0003
    114  CE2       48.0250   -1.1240  120.0610 C.ar  170  PHE170     -0.0003
    115  CZ        49.0300   -0.9120  121.0150 C.ar  170  PHE170     -0.0000
    116  N         44.4120    0.1160  116.7120 N.3   172  VAL172     -0.1231
    117  CA        43.3500   -0.9040  117.1750 C.3   172  VAL172      0.1677
    118  C         42.1220   -0.2870  116.6210 C.2   172  VAL172      0.2431
    119  O         41.9130    0.9470  116.5510 O.2   172  VAL172     -0.2733
    120  CB        43.4070   -1.1900  118.6580 C.3   172  VAL172      0.0265
    121  CG1       44.5270   -0.4480  119.3560 C.3   172  VAL172      0.0020
    122  CG2       42.0880   -0.9130  119.3550 C.3   172  VAL172      0.0020
    123  N         41.2160   -1.4280  116.1780 N.am  173  PRO173     -0.2774
    124  CA        39.9610   -0.9770  115.6310 C.3   173  PRO173      0.1083
    125  C         39.0900   -0.4030  116.7330 C.3   173  PRO173      0.2017
    126  O         39.4710   -0.6810  117.9360 O.3   173  PRO173     -0.2186
    127  CB        39.2440   -2.2960  115.2480 C.3   173  PRO173      0.0243
    128  CG        39.9930   -3.3770  115.8760 C.3   173  PRO173      0.0233
    129  CD        41.4330   -2.8830  115.9490 C.3   173  PRO173      0.0935
    130  N         36.8400   -0.7340  119.3860 N.3   175  VAL175     -0.1245
    131  CA        36.3720   -1.9130  120.1530 C.3   175  VAL175      0.1561
    132  C         35.2180   -1.5940  121.1170 C.2   175  VAL175      0.2260
    133  O         35.0200   -2.2880  122.1270 O.2   175  VAL175     -0.2867
    134  CB        37.5170   -2.4770  120.9960 C.3   175  VAL175      0.0252
    135  CG1       38.8460   -1.7590  120.7560 C.3   175  VAL175      0.0019
    136  CG2       37.2560   -2.3760  122.5010 C.3   175  VAL175      0.0019
    137  N         31.5850    5.5050  121.4560 N.3   181  TYR181     -0.1241
    138  CA        32.0750    5.6800  122.8340 C.3   181  TYR181      0.1605
    139  C         31.2870    6.8020  123.5050 C.2   181  TYR181      0.2264
    140  O         31.1190    7.8900  122.9370 O.2   181  TYR181     -0.2867
    141  CB        33.5500    6.1070  122.8550 C.3   181  TYR181      0.0534
    142  CG        34.5360    5.0880  122.2780 C.ar  181  TYR181     -0.0201
    143  CD1       34.4270    3.7270  122.5960 C.ar  181  TYR181     -0.0009
    144  CD2       35.5620    5.5290  121.4320 C.ar  181  TYR181     -0.0009
    145  CE1       35.3480    2.8090  122.0680 C.ar  181  TYR181      0.0417
    146  CE2       36.4810    4.6120  120.9060 C.ar  181  TYR181      0.0417
    147  CZ        36.3760    3.2530  121.2240 C.ar  181  TYR181      0.1957
    148  OH        37.2740    2.3660  120.7160 O.3   181  TYR181     -0.2866
    149  N         32.7840    2.0560  130.5140 N.3   203  ASN203     -0.1240
    150  CA        34.1340    1.8900  129.9550 C.3   203  ASN203      0.1653
    151  C         34.9410    0.8880  130.7860 C.2   203  ASN203      0.2266
    152  O         35.7920    1.2730  131.6010 O.2   203  ASN203     -0.2867
    153  CB        34.8590    3.2350  129.9410 C.3   203  ASN203      0.1155
    154  CG        34.4830    4.1020  128.7390 C.2   203  ASN203      0.2627
    155  OD1       33.4390    3.8820  128.1260 O.2   203  ASN203     -0.2716
    156  ND2       35.2740    5.0860  128.3580 N.am  203  ASN203     -0.0877
    157  N         36.9040   -2.0240  129.5070 N.3   205  MET205     -0.1245
    158  CA        37.5580   -2.7280  128.3910 C.3   205  MET205      0.1570
    159  C         38.8970   -3.3500  128.8130 C.2   205  MET205      0.2261
    160  O         39.8790   -3.3230  128.0580 O.2   205  MET205     -0.2867
    161  CB        37.8400   -1.7410  127.2570 C.3   205  MET205      0.0387
    162  CG        37.6080   -0.2830  127.6650 C.3   205  MET205      0.0595
    163  SD        36.7610    0.6610  126.4170 S.3   205  MET205     -0.1393
    164  CE        35.4220   -0.2930  125.7370 C.3   205  MET205      0.0692
    165  N         45.8440   -3.0800  130.0950 N.3   208  MET208     -0.1245
    166  CA        47.1060   -3.4010  129.4170 C.3   208  MET208      0.1570
    167  C         48.1430   -3.7380  130.4890 C.2   208  MET208      0.2261
    168  O         48.1850   -3.1090  131.5550 O.2   208  MET208     -0.2867
    169  CB        47.5690   -2.1950  128.5940 C.3   208  MET208      0.0387
    170  CG        48.8420   -2.4650  127.7900 C.3   208  MET208      0.0595
    171  SD        48.6890   -2.0120  126.0740 S.3   208  MET208     -0.1393
    172  CE        48.0130   -0.3700  125.9340 C.3   208  MET208      0.0692
@<TRIPOS>BOND
     1   127   124    1
     2   127   128    1
     3   124   123    1
     4   124   125    1
     5   128   129    1
     6   129   123    1
     7    40    41    1
     8    40    43    1
     9    40    39    1
    10   106   107    1
    11   106   105    1
    12   106   109    1
    13   123   118   am
    14   107   108    2
    15    41    42    2
    16   119   118    2
    17    43    44    1
    18   118   117    1
    19   116   117    1
    20   125   126    1
    21   109   110    1
    22    53    52    2
    23    50    51    1
    24   117   120    1
    25    52    51    1
    26    51    54    1
    27    44    46   ar
    28    44    45   ar
    29   110   112   ar
    30   110   111   ar
    31   120   122    1
    32   120   121    1
    33   112   114   ar
    34    46    48   ar
    35    45    47   ar
    36    56    57    1
    37    59    58    1
    38   111   113   ar
    39    54    55    1
    40   130   131    1
    41    58    57    1
    42   114   115   ar
    43    57    60    1
    44    48    49   ar
    45    47    49   ar
    46   131   134    1
    47   131   132    1
    48   104   102    1
    49    89    90    2
    50    89    86    1
    51    95    94    2
    52   113   115   ar
    53   148   147    1
    54   135   134    1
    55   102    99    1
    56   102   103    1
    57    90    91    1
    58   146   147   ar
    59   146   144   ar
    60    60    61    1
    61   134   136    1
    62    86    85    1
    63    86    87    1
    64   132   133    2
    65   147   145   ar
    66    99    98    1
    67    99   100    1
    68    63    61   ar
    69    63    65   ar
    70   144   142   ar
    71   137   138    1
    72    94    98   am
    73    94    93    1
    74    61    62   ar
    75    92    87   am
    76    92    93    1
    77    91    85    2
    78    65    66   ar
    79    87    88    2
    80   145   143   ar
    81   100   101    2
    82   142   143   ar
    83   142   141    1
    84    93    96    1
    85    62    64   ar
    86   138   141    1
    87   138   139    1
    88    66    64   ar
    89    66    67    1
    90   140   139    2
    91    96    97    1
    92    38    36    1
    93    71    70    2
    94    80    82   ar
    95    80    78   ar
    96    82    83   ar
    97    77    78    1
    98    77    74    1
    99    78    79   ar
   100    83    84    1
   101    83    81   ar
   102    37    36    1
   103    72    69    1
   104   164   163    1
   105    36    35    1
   106    70    69    1
   107   172   171    1
   108    68    69    1
   109   171   170    1
   110    79    81   ar
   111    73    74    1
   112    76    75    2
   113   163   162    1
   114    74    75    1
   115    35    32    1
   116   161   162    1
   117   161   158    1
   118    22    20    1
   119    21    19    1
   120    14    13   ar
   121    14    12   ar
   122   170   169    1
   123    13    11   ar
   124   160   159    2
   125   155   154    2
   126    32    31    1
   127    32    33    1
   128   156   154   am
   129   158   159    1
   130   158   157    1
   131    34    33    2
   132   169   166    1
   133    12    10   ar
   134   154   153    1
   135    20    19    1
   136    31    25   am
   137    19    16    1
   138    11     8   ar
   139   166   165    1
   140   166   167    1
   141    25    26    2
   142    25    24    1
   143    23    24    1
   144    23    17   am
   145   153   150    1
   146   150   149    1
   147   150   151    1
   148    10     8   ar
   149    10     9   ar
   150    24    27    1
   151    16    17    1
   152    16    15    1
   153     8     6   ar
   154    17    18    2
   155   167   168    2
   156   151   152    2
   157     9     7   ar
   158    27    28    1
   159     4     3    2
   160     6     7   ar
   161     6     5    1
   162    29    28    2
   163    28    30   am
   164     5     2    1
   165     3     2    1
   166     2     1    1
