@<TRIPOS>MOLECULE
tmp/2hwcA00.pdb
 205 197 0 0 0
SMALL
GASTEIGER

@<TRIPOS>ATOM
      1  N         43.2400    0.5850  130.8850 N.3    88  ILE88      -0.1231
      2  CA        42.8310    1.3400  129.7200 C.3    88  ILE88       0.1692
      3  C         41.6710    2.2600  130.0260 C.2    88  ILE88       0.2592
      4  O         40.5670    1.8010  130.3790 O.2    88  ILE88      -0.2718
      5  CB        42.4520    0.4040  128.5900 C.3    88  ILE88       0.0266
      6  CG1       43.2230   -0.9130  128.6360 C.3    88  ILE88       0.0019
      7  CG2       42.7410    1.0110  127.2170 C.3    88  ILE88       0.0020
      8  CD1       44.3580   -0.9740  127.6130 C.3    88  ILE88       0.0001
      9  N         42.0390    3.4980  129.8500 N.am   89  ASN89      -0.1960
     10  CA        41.1860    4.6490  130.0140 C.3    89  ASN89       0.1819
     11  C         41.9220    5.8690  129.4570 C.2    89  ASN89       0.2621
     12  O         43.1570    5.9570  129.5320 O.2    89  ASN89      -0.2715
     13  CB        40.8410    4.8480  131.4930 C.3    89  ASN89       0.1195
     14  CG        41.7920    5.8010  132.2180 C.2    89  ASN89       0.2630
     15  OD1       41.7540    7.0070  131.9830 O.2    89  ASN89      -0.2716
     16  ND2       42.6530    5.3260  133.0990 N.am   89  ASN89      -0.0877
     17  N         41.1160    6.7620  128.9150 N.am   90  LEU90      -0.1977
     18  CA        41.5850    7.9930  128.2610 C.3    90  LEU90       0.1596
     19  C         41.1590    9.2450  129.0380 C.2    90  LEU90       0.2287
     20  O         41.1410   10.3590  128.4950 O.2    90  LEU90      -0.2864
     21  CB        40.9510    8.0940  126.8700 C.3    90  LEU90       0.0297
     22  CG        41.8800    7.6160  125.7530 C.3    90  LEU90       0.0022
     23  CD1       41.9360    6.0920  125.6300 C.3    90  LEU90       0.0001
     24  CD2       41.4670    8.1290  124.3720 C.3    90  LEU90       0.0001
     25  N         38.2770   15.8140  123.9030 N.3   100  LEU100     -0.1245
     26  CA        37.3080   14.7390  123.6210 C.3   100  LEU100      0.1561
     27  C         35.9090   15.0600  124.1690 C.2   100  LEU100      0.2260
     28  O         34.8890   14.7430  123.5380 O.2   100  LEU100     -0.2867
     29  CB        37.7550   13.4350  124.2920 C.3   100  LEU100      0.0270
     30  CG        38.7330   12.6170  123.4470 C.3   100  LEU100      0.0019
     31  CD1       39.4450   11.5260  124.2500 C.3   100  LEU100      0.0001
     32  CD2       38.0580   11.8960  122.2790 C.3   100  LEU100      0.0001
     33  N         31.6320    9.5800  120.6320 N.3   106  VAL106     -0.1301
     34  CA        32.8560    9.7710  119.7030 C.3   106  VAL106      0.1246
     35  C         33.1190    8.4150  119.1970 C.3   106  VAL106      0.2009
     36  O         32.8200    7.4300  119.9740 O.3   106  VAL106     -0.2188
     37  CB        33.7850   10.4530  120.7150 C.3   106  VAL106      0.0202
     38  CG1       34.8180    9.5960  121.3160 C.3   106  VAL106      0.0016
     39  CG2       34.2360   11.7400  120.1250 C.3   106  VAL106      0.0016
     40  N         36.1210    6.1360  116.8490 N.3   108  PHE108     -0.1241
     41  CA        37.3880    6.2410  116.1280 C.3   108  PHE108      0.1605
     42  C         38.2070    4.9890  116.2830 C.2   108  PHE108      0.2264
     43  O         37.8860    4.1840  117.1770 O.2   108  PHE108     -0.2867
     44  CB        38.0960    7.5200  116.5820 C.3   108  PHE108      0.0534
     45  CG        38.2540    7.6750  118.0530 C.ar  108  PHE108     -0.0203
     46  CD1       39.0860    6.8440  118.7820 C.ar  108  PHE108     -0.0042
     47  CD2       37.6150    8.6990  118.7370 C.ar  108  PHE108     -0.0042
     48  CE1       39.2600    6.9730  120.1450 C.ar  108  PHE108     -0.0003
     49  CE2       37.7570    8.8310  120.1150 C.ar  108  PHE108     -0.0003
     50  CZ        38.5740    7.9500  120.8090 C.ar  108  PHE108     -0.0000
     51  N         42.1100    3.5580  117.1060 N.3   110  SER110     -0.1217
     52  CA        43.1930    4.1360  117.8910 C.3   110  SER110      0.1889
     53  C         44.4970    3.7110  117.3240 C.2   110  SER110      0.2288
     54  O         44.5890    2.5330  116.9230 O.2   110  SER110     -0.2866
     55  CB        43.1180    3.6680  119.3290 C.3   110  SER110      0.2089
     56  OG        41.8040    4.0970  119.7750 O.3   110  SER110     -0.2183
     57  N         48.1950    3.3810  118.8680 N.3   112  TYR112     -0.1298
     58  CA        49.0120    3.5690  120.0780 C.3   112  TYR112      0.1290
     59  C         50.4770    3.6830  119.7780 C.3   112  TYR112      0.2013
     60  O         50.9340    2.8880  118.8750 O.3   112  TYR112     -0.2188
     61  CB        48.8310    2.3980  120.9850 C.3   112  TYR112      0.0480
     62  CG        47.5150    2.6380  121.6570 C.ar  112  TYR112     -0.0204
     63  CD1       47.3650    3.6130  122.6020 C.ar  112  TYR112     -0.0009
     64  CD2       46.3950    1.8590  121.3420 C.ar  112  TYR112     -0.0009
     65  CE1       46.1440    3.8510  123.2390 C.ar  112  TYR112      0.0417
     66  CE2       45.1630    2.0590  121.9450 C.ar  112  TYR112      0.0417
     67  CZ        45.0630    3.0650  122.9030 C.ar  112  TYR112      0.1957
     68  OH        43.8570    3.2240  123.5370 O.3   112  TYR112     -0.2866
     69  N         54.2610   -5.8760  126.0600 N.3   134  ALA134     -0.1231
     70  CA        52.9440   -5.2800  126.3200 C.3   134  ALA134      0.1694
     71  C         51.8510   -6.1990  125.7720 C.2   134  ALA134      0.2592
     72  O         51.9190   -6.6000  124.6520 O.2   134  ALA134     -0.2718
     73  CB        52.8440   -3.9140  125.6410 C.3   134  ALA134      0.0304
     74  N         51.0590   -6.7030  126.6980 N.am  135  MET135     -0.1965
     75  CA        49.9510   -7.6200  126.3930 C.3   135  MET135      0.1736
     76  C         48.6420   -7.0600  126.9640 C.2   135  MET135      0.2616
     77  O         48.5910   -6.6110  128.1190 O.2   135  MET135     -0.2715
     78  CB        50.2510   -8.9960  126.9960 C.3   135  MET135      0.0427
     79  CG        49.0400   -9.6440  127.6670 C.3   135  MET135      0.0599
     80  SD        49.0880  -11.4240  127.6090 S.3   135  MET135     -0.1393
     81  CE        49.4880  -12.0790  129.2150 C.3   135  MET135      0.0692
     82  N         47.6250   -7.1080  126.1190 N.am  136  TYR136     -0.1974
     83  CA        46.2770   -6.6070  126.4400 C.3   136  TYR136      0.1639
     84  C         45.3860   -7.7550  126.9220 C.2   136  TYR136      0.2290
     85  O         44.9410   -8.5970  126.1270 O.2   136  TYR136     -0.2864
     86  CB        45.6600   -5.9720  125.1870 C.3   136  TYR136      0.0560
     87  CG        44.1540   -5.7070  125.2980 C.ar  136  TYR136     -0.0198
     88  CD1       43.6800   -4.6520  126.0880 C.ar  136  TYR136     -0.0009
     89  CD2       43.2470   -6.5170  124.6020 C.ar  136  TYR136     -0.0009
     90  CE1       42.3040   -4.4050  126.1790 C.ar  136  TYR136      0.0417
     91  CE2       41.8710   -6.2710  124.6940 C.ar  136  TYR136      0.0417
     92  CZ        41.4000   -5.2140  125.4810 C.ar  136  TYR136      0.1957
     93  OH        40.0640   -4.9730  125.5670 O.3   136  TYR136     -0.2866
     94  N         46.6950  -10.4660  121.8520 N.2   158  PRO158     -0.2571
     95  CA        47.6410   -9.6870  121.0730 C.3   158  PRO158      0.2026
     96  C         48.6710   -9.0740  121.9910 C.2   158  PRO158      0.2684
     97  O         48.2220   -8.3640  122.9710 O.2   158  PRO158     -0.2709
     98  CB        46.7830   -8.6450  120.3960 C.2   158  PRO158      0.0085
     99  CG        45.3400   -8.8810  120.8310 C.2   158  PRO158      0.0180
    100  CD        45.2950  -10.0540  121.7670 C.2   158  PRO158      0.0938
    101  N         49.9330   -9.3350  121.6690 N.am  159  SER159     -0.1931
    102  CA        51.0830   -8.8310  122.4500 C.3   159  SER159      0.2055
    103  C         52.2150   -8.3820  121.5160 C.2   159  SER159      0.2642
    104  O         52.3990   -8.9360  120.4220 O.2   159  SER159     -0.2714
    105  CB        51.6180   -9.9330  123.3680 C.3   159  SER159      0.2130
    106  OG        50.6600  -10.2390  124.3700 O.3   159  SER159     -0.2179
    107  N         52.9500   -7.3830  121.9870 N.am  160  VAL160     -0.1977
    108  CA        54.0790   -6.7970  121.2420 C.3   160  VAL160      0.1596
    109  C         55.3390   -6.7450  122.1140 C.2   160  VAL160      0.2287
    110  O         55.2830   -6.3760  123.2970 O.2   160  VAL160     -0.2864
    111  CB        53.7390   -5.3690  120.8060 C.3   160  VAL160      0.0276
    112  CG1       53.6040   -4.4010  121.9830 C.3   160  VAL160      0.0022
    113  CG2       54.7960   -4.7570  119.8850 C.3   160  VAL160      0.0022
    114  N         51.1230    0.3480  116.7830 N.3   170  PHE170     -0.1241
    115  CA        50.0850   -0.4650  116.1650 C.3   170  PHE170      0.1605
    116  C         48.7940    0.3130  116.2670 C.2   170  PHE170      0.2264
    117  O         48.7270    1.3720  116.8940 O.2   170  PHE170     -0.2867
    118  CB        49.9760   -1.7740  116.9230 C.3   170  PHE170      0.0534
    119  CG        49.7620   -1.5240  118.4040 C.ar  170  PHE170     -0.0203
    120  CD1       50.8610   -1.2960  119.2380 C.ar  170  PHE170     -0.0042
    121  CD2       48.4660   -1.5070  118.9130 C.ar  170  PHE170     -0.0042
    122  CE1       50.6580   -1.0560  120.6000 C.ar  170  PHE170     -0.0003
    123  CE2       48.2610   -1.2690  120.2750 C.ar  170  PHE170     -0.0003
    124  CZ        49.3570   -1.0440  121.1190 C.ar  170  PHE170     -0.0000
    125  N         44.3650   -0.0160  116.5980 N.3   172  VAL172     -0.1231
    126  CA        43.2790   -0.8890  116.9970 C.3   172  VAL172      0.1681
    127  C         41.9580   -0.3410  116.4870 C.2   172  VAL172      0.2471
    128  O         41.7260    0.8830  116.5060 O.2   172  VAL172     -0.2730
    129  CB        43.3170   -1.0140  118.5250 C.3   172  VAL172      0.0265
    130  CG1       44.4820   -0.2330  119.1500 C.3   172  VAL172      0.0020
    131  CG2       42.0570   -0.5030  119.2180 C.3   172  VAL172      0.0020
    132  N         41.0650   -1.2190  116.0090 N.am  173  PRO173     -0.2506
    133  CA        39.7780   -0.8000  115.5350 C.3   173  PRO173      0.1487
    134  C         39.0350   -0.2680  116.6840 C.2   173  PRO173      0.2276
    135  O         39.5100   -0.3970  117.8460 O.2   173  PRO173     -0.2865
    136  CB        39.0990   -2.0700  115.0930 C.3   173  PRO173      0.0556
    137  CG        40.0470   -3.2140  115.3770 C.2   173  PRO173     -0.0078
    138  CD        41.3190   -2.6560  115.9340 C.2   173  PRO173      0.0634
    139  N         36.8460   -0.7280  119.3860 N.3   175  VAL175     -0.1245
    140  CA        36.3780   -1.9070  120.1530 C.3   175  VAL175      0.1561
    141  C         35.2240   -1.5880  121.1170 C.2   175  VAL175      0.2260
    142  O         35.0260   -2.2820  122.1270 O.2   175  VAL175     -0.2867
    143  CB        37.5230   -2.4710  120.9960 C.3   175  VAL175      0.0252
    144  CG1       38.9020   -2.0300  120.5020 C.3   175  VAL175      0.0019
    145  CG2       37.4520   -2.0430  122.4630 C.3   175  VAL175      0.0019
    146  N         31.5910    5.5110  121.4560 N.3   181  TYR181     -0.1227
    147  CA        32.0810    5.6860  122.8340 C.3   181  TYR181      0.1736
    148  C         31.2930    6.8080  123.5050 C.2   181  TYR181      0.2595
    149  O         31.1250    7.8960  122.9370 O.2   181  TYR181     -0.2718
    150  CB        33.5560    6.1130  122.8550 C.3   181  TYR181      0.0548
    151  CG        34.5420    5.0940  122.2780 C.ar  181  TYR181     -0.0200
    152  CD1       34.4330    3.7330  122.5960 C.ar  181  TYR181     -0.0009
    153  CD2       35.5680    5.5350  121.4320 C.ar  181  TYR181     -0.0009
    154  CE1       35.3540    2.8150  122.0680 C.ar  181  TYR181      0.0417
    155  CE2       36.4870    4.6180  120.9060 C.ar  181  TYR181      0.0417
    156  CZ        36.3820    3.2590  121.2240 C.ar  181  TYR181      0.1957
    157  OH        37.2800    2.3720  120.7160 O.3   181  TYR181     -0.2866
    158  N         30.8270    6.5320  124.7010 N.am  182  ASN182     -0.1960
    159  CA        30.0600    7.5150  125.4780 C.3   182  ASN182      0.1819
    160  C         31.0120    8.3590  126.3280 C.2   182  ASN182      0.2621
    161  O         31.6180    7.8640  127.2890 O.2   182  ASN182     -0.2715
    162  CB        29.0600    6.8040  126.3920 C.3   182  ASN182      0.1195
    163  CG        27.6860    6.6240  125.7430 C.2   182  ASN182      0.2630
    164  OD1       26.7220    7.2730  126.1480 O.2   182  ASN182     -0.2716
    165  ND2       27.5340    5.7720  124.7460 N.am  182  ASN182     -0.0877
    166  N         31.1140    9.6170  125.9370 N.am  183  CYS183     -0.1968
    167  CA        31.9680   10.6000  126.6220 C.3   183  CYS183      0.1712
    168  C         31.3380   10.9700  127.9640 C.2   183  CYS183      0.2296
    169  O         32.0280   11.4140  128.8930 O.2   183  CYS183     -0.2864
    170  CB        32.1090   11.8600  125.7650 C.3   183  CYS183      0.0983
    171  SG        33.3880   11.7060  124.4800 S.3   183  CYS183     -0.0798
    172  N         32.7900    2.0620  130.5140 N.3   203  ASN203     -0.1240
    173  CA        34.1400    1.8960  129.9550 C.3   203  ASN203      0.1653
    174  C         34.9490    0.8930  130.7840 C.2   203  ASN203      0.2266
    175  O         35.8060    1.2780  131.5930 O.2   203  ASN203     -0.2867
    176  CB        34.8670    3.2410  129.9410 C.3   203  ASN203      0.1155
    177  CG        34.4870    4.1060  128.7370 C.2   203  ASN203      0.2627
    178  OD1       33.4430    3.8840  128.1260 O.2   203  ASN203     -0.2716
    179  ND2       35.2770    5.0900  128.3540 N.am  203  ASN203     -0.0877
    180  N         36.9040   -2.0220  129.5070 N.3   205  MET205     -0.1245
    181  CA        37.5530   -2.7380  128.3940 C.3   205  MET205      0.1570
    182  C         38.8980   -3.3490  128.8120 C.2   205  MET205      0.2261
    183  O         39.8750   -3.3260  128.0490 O.2   205  MET205     -0.2867
    184  CB        37.8150   -1.7670  127.2410 C.3   205  MET205      0.0387
    185  CG        37.9970   -0.3210  127.7120 C.3   205  MET205      0.0595
    186  SD        37.5430    0.8770  126.4760 S.3   205  MET205     -0.1393
    187  CE        36.1040    0.3220  125.5890 C.3   205  MET205      0.0692
    188  N         45.8500   -3.0740  130.0950 N.3   208  MET208     -0.1245
    189  CA        47.1120   -3.3950  129.4170 C.3   208  MET208      0.1570
    190  C         48.1560   -3.7080  130.4900 C.2   208  MET208      0.2261
    191  O         48.1920   -3.0690  131.5510 O.2   208  MET208     -0.2867
    192  CB        47.5630   -2.1970  128.5750 C.3   208  MET208      0.0387
    193  CG        48.8090   -2.4840  127.7340 C.3   208  MET208      0.0595
    194  SD        48.8850   -1.5070  126.2470 S.3   208  MET208     -0.1393
    195  CE        47.6550   -0.2210  126.2980 C.3   208  MET208      0.0692
    196  N         48.2570    8.1210  122.3560 N.3   229  HIS229     -0.1241
    197  CA        47.0740    7.6530  121.6110 C.3   229  HIS229      0.1621
    198  C         46.6890    8.6620  120.5550 C.2   229  HIS229      0.2264
    199  O         46.6140    9.8410  120.8590 O.2   229  HIS229     -0.2867
    200  CB        45.9080    7.4130  122.5330 C.3   229  HIS229      0.0745
    201  CG        44.6140    7.2010  121.8230 C.ar  229  HIS229      0.0817
    202  ND1       43.8640    8.2450  121.3150 N.ar  229  HIS229     -0.2268
    203  CD2       43.9300    6.0410  121.5580 C.ar  229  HIS229      0.1154
    204  CE1       42.7460    7.6960  120.7690 C.ar  229  HIS229      0.1986
    205  NE2       42.7700    6.4000  120.9040 N.ar  229  HIS229     -0.2212
@<TRIPOS>BOND
     1   136   137    1
     2   136   133    1
     3   137   138    2
     4   133   132    1
     5   133   134    1
     6   138   132    1
     7   132   127   am
     8    41    42    1
     9    41    44    1
    10    41    40    1
    11   115   116    1
    12   115   114    1
    13   115   118    1
    14   116   117    2
    15    42    43    2
    16   127   128    2
    17   127   126    1
    18    44    45    1
    19   125   126    1
    20   134   135    2
    21   118   119    1
    22    54    53    2
    23   126   129    1
    24    51    52    1
    25    53    52    1
    26    52    55    1
    27    45    47   ar
    28    45    46   ar
    29   119   121   ar
    30   119   120   ar
    31   129   130    1
    32   129   131    1
    33    47    49   ar
    34    46    48   ar
    35    57    58    1
    36    60    59    1
    37   121   123   ar
    38    35    34    1
    39    35    36    1
    40   120   122   ar
    41    55    56    1
    42   139   140    1
    43    34    33    1
    44    34    37    1
    45    59    58    1
    46   113   111    1
    47    58    61    1
    48    49    50   ar
    49    39    37    1
    50    48    50   ar
    51   140   143    1
    52   140   141    1
    53   123   124   ar
    54    98    99    2
    55    98    95    1
    56   104   103    2
    57   144   143    1
    58   198   199    2
    59   198   197    1
    60   122   124   ar
    61    37    38    1
    62   157   156    1
    63   204   205   ar
    64   204   202   ar
    65   111   108    1
    66   111   112    1
    67    99   100    1
    68   205   203   ar
    69   155   156   ar
    70   155   153   ar
    71    61    62    1
    72   143   145    1
    73    95    94    1
    74    95    96    1
    75   141   142    2
    76   156   154   ar
    77   108   107    1
    78   108   109    1
    79   202   201   ar
    80    64    62   ar
    81    64    66   ar
    82   153   151   ar
    83   146   147    1
    84   103   107   am
    85   103   102    1
    86   203   201   ar
    87   197   196    1
    88   197   200    1
    89    62    63   ar
    90   101    96   am
    91   101   102    1
    92   100    94    2
    93   201   200    1
    94    66    67   ar
    95    96    97    2
    96   154   152   ar
    97   109   110    2
    98   151   152   ar
    99   151   150    1
   100    32    30    1
   101   102   105    1
   102    63    65   ar
   103   147   150    1
   104   147   148    1
   105    67    65   ar
   106    67    68    1
   107   149   148    2
   108   105   106    1
   109    30    31    1
   110    30    29    1
   111   148   158   am
   112    28    27    2
   113    26    25    1
   114    26    27    1
   115    26    29    1
   116    24    22    1
   117   171   170    1
   118    89    91   ar
   119    89    87   ar
   120    72    71    2
   121    91    92   ar
   122   158   159    1
   123   165   163   am
   124    86    87    1
   125    86    83    1
   126    87    88   ar
   127   159   160    1
   128   159   162    1
   129    92    93    1
   130    92    90   ar
   131   187   186    1
   132    23    22    1
   133    73    70    1
   134   163   164    2
   135   163   162    1
   136    22    21    1
   137   170   167    1
   138    71    70    1
   139    71    74   am
   140   166   160   am
   141   166   167    1
   142    69    70    1
   143    88    90   ar
   144    82    83    1
   145    82    76   am
   146    85    84    2
   147   194   195    1
   148   194   193    1
   149   160   161    2
   150    75    74    1
   151    75    76    1
   152    75    78    1
   153    83    84    1
   154   186   185    1
   155   167   168    1
   156    21    18    1
   157    76    77    2
   158    78    79    1
   159     7     5    1
   160   184   185    1
   161   184   181    1
   162    80    79    1
   163    80    81    1
   164     8     6    1
   165   193   192    1
   166   168   169    2
   167   183   182    2
   168   178   177    2
   169    18    17    1
   170    18    19    1
   171   179   177   am
   172   181   182    1
   173   181   180    1
   174    20    19    2
   175   192   189    1
   176     5     6    1
   177     5     2    1
   178   177   176    1
   179    17    11   am
   180   189   188    1
   181   189   190    1
   182    11    12    2
   183    11    10    1
   184     2     3    1
   185     2     1    1
   186     9    10    1
   187     9     3   am
   188   176   173    1
   189   173   172    1
   190   173   174    1
   191    10    13    1
   192     3     4    2
   193   190   191    2
   194   174   175    2
   195    13    14    1
   196    15    14    2
   197    14    16   am
