@<TRIPOS>MOLECULE
tmp/2hwdA00.pdb
 245 235 0 0 0
SMALL
GASTEIGER

@<TRIPOS>ATOM
      1  N         48.6690    9.5940  127.8300 N.3    73  VAL73      -0.1245
      2  CA        47.3800    9.2890  128.5120 C.3    73  VAL73       0.1561
      3  C         47.6360    8.3720  129.7000 C.2    73  VAL73       0.2260
      4  O         46.7080    8.0330  130.4570 O.2    73  VAL73      -0.2867
      5  CB        46.4520    8.6480  127.4500 C.3    73  VAL73       0.0252
      6  CG1       46.2880    9.4770  126.1950 C.3    73  VAL73       0.0019
      7  CG2       46.9330    7.2640  127.0640 C.3    73  VAL73       0.0019
      8  N         47.0380   -1.3720  134.6130 N.3    95  TRP95      -0.1241
      9  CA        46.4200   -0.0560  134.3900 C.3    95  TRP95       0.1605
     10  C         45.1770   -0.2270  133.5490 C.2    95  TRP95       0.2264
     11  O         45.1730   -0.9710  132.5440 O.2    95  TRP95      -0.2867
     12  CB        47.4140    0.8600  133.6770 C.3    95  TRP95       0.0550
     13  CG        46.8230    2.1930  133.1890 C.ar   95  TRP95       0.0003
     14  CD1       46.5930    3.3000  133.9170 C.ar   95  TRP95       0.0946
     15  CD2       46.4240    2.4640  131.8550 C.ar   95  TRP95       0.0152
     16  NE1       46.0650    4.2910  133.0230 N.ar   95  TRP95      -0.2442
     17  CE2       45.9840    3.7820  131.8170 C.ar   95  TRP95       0.0810
     18  CE3       46.4160    1.7080  130.6800 C.ar   95  TRP95       0.0012
     19  CZ2       45.5460    4.4090  130.6440 C.ar   95  TRP95       0.0191
     20  CZ3       45.9620    2.3420  129.5050 C.ar   95  TRP95       0.0001
     21  CH2       45.5510    3.6300  129.4880 C.ar   95  TRP95       0.0015
     22  N         42.4760    0.9800  131.2830 N.3    97  ILE97      -0.1231
     23  CA        42.1240    1.5280  130.0800 C.3    97  ILE97       0.1692
     24  C         41.3440    2.7550  130.3670 C.2    97  ILE97       0.2593
     25  O         40.4160    2.7620  131.2050 O.2    97  ILE97      -0.2718
     26  CB        41.3330    0.4020  129.5590 C.3    97  ILE97       0.0266
     27  CG1       41.2180   -0.6420  130.6860 C.3    97  ILE97       0.0019
     28  CG2       41.9780   -0.2900  128.3730 C.3    97  ILE97       0.0020
     29  CD1       42.5980   -0.9830  131.3110 C.3    97  ILE97       0.0001
     30  N         41.7110    3.7490  129.6980 N.am   98  THR98      -0.1939
     31  CA        41.0770    4.9700  129.8830 C.3    98  THR98       0.2028
     32  C         41.8840    6.1350  129.5690 C.2    98  THR98       0.2642
     33  O         43.0040    6.0140  129.0620 O.2    98  THR98      -0.2714
     34  CB        40.7290    5.3510  131.2960 C.3    98  THR98       0.1808
     35  OG1       40.9210    4.2410  132.1600 O.3    98  THR98      -0.2208
     36  CG2       39.2780    5.8100  131.4490 C.3    98  THR98       0.0379
     37  N         41.2000    7.1450  129.9460 N.am   99  LEU99      -0.1963
     38  CA        41.6300    8.4760  129.8410 C.3    99  LEU99       0.1728
     39  C         41.2390    9.1810  131.0900 C.2    99  LEU99       0.2616
     40  O         41.9070    9.0490  132.1280 O.2    99  LEU99      -0.2715
     41  CB        40.9470    9.1130  128.6640 C.3    99  LEU99       0.0311
     42  CG        41.5580    8.6590  127.3580 C.3    99  LEU99       0.0022
     43  CD1       40.5330    8.5550  126.2350 C.3    99  LEU99       0.0001
     44  CD2       42.6520    9.6070  126.8780 C.3    99  LEU99       0.0001
     45  N         40.1470    9.8950  130.9670 N.am  100  GLN100     -0.1977
     46  CA        39.7070   10.6910  132.0790 C.3   100  GLN100      0.1601
     47  C         40.8710   10.6780  133.0500 C.2   100  GLN100      0.2287
     48  O         40.9700   11.5190  133.9490 O.2   100  GLN100     -0.2864
     49  CB        38.4320   10.1180  132.7100 C.3   100  GLN100      0.0394
     50  CG        37.5180    9.3990  131.7100 C.3   100  GLN100      0.0908
     51  CD        36.3490   10.2590  131.2010 C.2   100  GLN100      0.2608
     52  OE1       36.0530   11.3110  131.7680 O.2   100  GLN100     -0.2717
     53  NE2       35.6530    9.8690  130.1470 N.am  100  GLN100     -0.0878
     54  N         36.0910    6.0780  116.9570 N.3   117  PHE117     -0.1241
     55  CA        37.3990    6.0730  116.2970 C.3   117  PHE117      0.1605
     56  C         38.2590    4.8630  116.4310 C.2   117  PHE117      0.2264
     57  O         38.1210    4.1080  117.3830 O.2   117  PHE117     -0.2867
     58  CB        38.4000    7.1140  116.8690 C.3   117  PHE117      0.0534
     59  CG        38.3970    7.4660  118.4210 C.ar  117  PHE117     -0.0203
     60  CD1       37.3040    8.1140  119.0200 C.ar  117  PHE117     -0.0042
     61  CD2       39.5270    7.1650  119.2430 C.ar  117  PHE117     -0.0042
     62  CE1       37.3490    8.5170  120.3690 C.ar  117  PHE117     -0.0003
     63  CE2       39.5560    7.5630  120.6010 C.ar  117  PHE117     -0.0003
     64  CZ        38.4730    8.2520  121.1530 C.ar  117  PHE117     -0.0000
     65  N         42.4480    4.0000  116.6560 N.3   119  SER119     -0.1217
     66  CA        43.5750    4.7770  117.3350 C.3   119  SER119      0.1889
     67  C         45.0630    4.3870  116.8780 C.2   119  SER119      0.2288
     68  O         45.3250    3.2470  116.4780 O.2   119  SER119     -0.2866
     69  CB        43.4670    4.4940  118.8530 C.3   119  SER119      0.2089
     70  OG        42.1810    3.9290  119.1570 O.3   119  SER119     -0.2183
     71  N         48.5120    4.1530  118.4650 N.3   121  ILE121     -0.1245
     72  CA        49.1430    3.9330  119.7260 C.3   121  ILE121      0.1561
     73  C         50.6110    3.7500  119.5560 C.2   121  ILE121      0.2260
     74  O         51.0710    2.9990  118.6790 O.2   121  ILE121     -0.2867
     75  CB        48.5290    2.7130  120.3360 C.3   121  ILE121      0.0252
     76  CG1       47.0060    2.8130  120.3550 C.3   121  ILE121      0.0019
     77  CG2       48.9860    2.4780  121.7690 C.3   121  ILE121      0.0019
     78  CD1       46.3550    1.8190  121.3090 C.3   121  ILE121      0.0001
     79  N         54.1260    3.5280  122.0380 N.3   123  LEU123     -0.1245
     80  CA        54.8200    3.2380  123.2960 C.3   123  LEU123      0.1561
     81  C         56.2080    3.8630  123.2590 C.2   123  LEU123      0.2260
     82  O         57.0090    3.5870  122.3590 O.2   123  LEU123     -0.2867
     83  CB        55.0030    1.7250  123.4470 C.3   123  LEU123      0.0270
     84  CG        53.8320    0.9980  124.1040 C.3   123  LEU123      0.0019
     85  CD1       52.5380    1.8120  124.1240 C.3   123  LEU123      0.0001
     86  CD2       53.4880   -0.3150  123.3950 C.3   123  LEU123      0.0001
     87  N         54.6600   -5.6810  126.1740 N.3   141  TYR141     -0.1227
     88  CA        53.3500   -5.0980  126.5000 C.3   141  TYR141      0.1736
     89  C         52.2290   -5.9680  125.9400 C.2   141  TYR141      0.2595
     90  O         52.2660   -6.3840  124.7710 O.2   141  TYR141     -0.2718
     91  CB        53.1930   -3.7180  125.8870 C.3   141  TYR141      0.0548
     92  CG        54.4070   -2.8660  126.1490 C.ar  141  TYR141     -0.0200
     93  CD1       55.6590   -3.3690  125.8130 C.ar  141  TYR141     -0.0009
     94  CD2       54.2630   -1.6080  126.7320 C.ar  141  TYR141     -0.0009
     95  CE1       56.7950   -2.6000  126.0650 C.ar  141  TYR141      0.0417
     96  CE2       55.3980   -0.8360  126.9830 C.ar  141  TYR141      0.0417
     97  CZ        56.6650   -1.3340  126.6500 C.ar  141  TYR141      0.1957
     98  OH        57.7750   -0.5900  126.8920 O.3   141  TYR141     -0.2866
     99  N         51.1160   -5.9920  126.9180 N.am  142  MET142     -0.1965
    100  CA        49.9290   -6.6620  126.3710 C.3   142  MET142      0.1736
    101  C         48.7170   -6.4540  127.2320 C.2   142  MET142      0.2616
    102  O         48.8570   -6.2380  128.4240 O.2   142  MET142     -0.2715
    103  CB        50.1000   -8.1740  126.3840 C.3   142  MET142      0.0427
    104  CG        49.3000   -8.8180  127.5230 C.3   142  MET142      0.0599
    105  SD        50.0850  -10.2520  128.2200 S.3   142  MET142     -0.1393
    106  CE        48.8940  -11.5630  128.3910 C.3   142  MET142      0.0692
    107  N         47.9070   -6.6480  126.3730 N.am  143  TYR143     -0.1974
    108  CA        46.5000   -6.2280  126.4290 C.3   143  TYR143      0.1639
    109  C         45.6700   -7.3170  127.0230 C.2   143  TYR143      0.2290
    110  O         45.7040   -8.4690  126.5590 O.2   143  TYR143     -0.2864
    111  CB        45.9980   -5.9030  124.9970 C.3   143  TYR143      0.0560
    112  CG        44.6080   -5.2090  124.8970 C.ar  143  TYR143     -0.0198
    113  CD1       44.4200   -3.9040  125.3980 C.ar  143  TYR143     -0.0009
    114  CD2       43.5210   -5.8600  124.2870 C.ar  143  TYR143     -0.0009
    115  CE1       43.1750   -3.2600  125.2780 C.ar  143  TYR143      0.0417
    116  CE2       42.2740   -5.2140  124.1710 C.ar  143  TYR143      0.0417
    117  CZ        42.1030   -3.9130  124.6620 C.ar  143  TYR143      0.1957
    118  OH        40.8980   -3.2870  124.5340 O.3   143  TYR143     -0.2866
    119  N         47.4180  -10.2020  122.5200 N.3   165  MET165     -0.1245
    120  CA        48.4770   -9.4440  121.8380 C.3   165  MET165      0.1570
    121  C         49.5020   -8.8860  122.7980 C.2   165  MET165      0.2261
    122  O         49.1570   -8.2260  123.7710 O.2   165  MET165     -0.2867
    123  CB        47.9420   -8.4090  120.8770 C.3   165  MET165      0.0387
    124  CG        49.1410   -7.7120  120.2880 C.3   165  MET165      0.0595
    125  SD        49.1980   -6.0910  121.1050 S.3   165  MET165     -0.1393
    126  CE        50.8170   -5.6010  120.4720 C.3   165  MET165      0.0692
    127  N         53.2940   -7.0330  122.3100 N.3   167  ILE167     -0.1245
    128  CA        54.2830   -6.3440  121.4430 C.3   167  ILE167      0.1561
    129  C         55.5810   -6.3670  122.2460 C.2   167  ILE167      0.2260
    130  O         55.5900   -6.2770  123.4920 O.2   167  ILE167     -0.2867
    131  CB        53.6500   -5.0010  121.1000 C.3   167  ILE167      0.0252
    132  CG1       54.7260   -4.0470  120.5530 C.3   167  ILE167      0.0019
    133  CG2       52.9620   -4.3930  122.3600 C.3   167  ILE167      0.0019
    134  CD1       53.9130   -2.7570  120.1170 C.3   167  ILE167      0.0001
    135  N         51.2690    0.8680  116.7570 N.3   178  PHE178     -0.1241
    136  CA        50.3260    0.0070  116.1710 C.3   178  PHE178      0.1605
    137  C         48.9800    0.5710  116.3360 C.2   178  PHE178      0.2264
    138  O         48.7880    1.6600  116.8750 O.2   178  PHE178     -0.2867
    139  CB        50.4330   -1.3370  116.8310 C.3   178  PHE178      0.0534
    140  CG        49.7230   -1.4140  118.1750 C.ar  178  PHE178     -0.0203
    141  CD1       48.3350   -1.2880  118.2360 C.ar  178  PHE178     -0.0042
    142  CD2       50.4630   -1.6170  119.3450 C.ar  178  PHE178     -0.0042
    143  CE1       47.6800   -1.3780  119.4660 C.ar  178  PHE178     -0.0003
    144  CE2       49.8070   -1.7100  120.5760 C.ar  178  PHE178     -0.0003
    145  CZ        48.4140   -1.5920  120.6360 C.ar  178  PHE178     -0.0000
    146  N         44.5000    0.1890  116.0860 N.3   180  ILE180     -0.1245
    147  CA        43.4130   -0.5110  116.5280 C.3   180  ILE180      0.1561
    148  C         42.0070   -0.1070  116.1200 C.2   180  ILE180      0.2260
    149  O         41.6600    1.0910  116.0720 O.2   180  ILE180     -0.2867
    150  CB        43.5070   -0.3110  118.0040 C.3   180  ILE180      0.0252
    151  CG1       44.8390   -0.7900  118.5830 C.3   180  ILE180      0.0019
    152  CG2       42.4350   -1.0200  118.7730 C.3   180  ILE180      0.0019
    153  CD1       44.8430   -0.7520  120.1090 C.3   180  ILE180      0.0001
    154  N         36.7850   -0.3970  119.4340 N.3   183  LEU183     -0.1301
    155  CA        36.4120   -1.5040  120.3070 C.3   183  LEU183      0.1247
    156  C         35.1330   -1.2590  121.0390 C.3   183  LEU183      0.2009
    157  O         35.5190   -1.1120  122.2270 O.3   183  LEU183     -0.2188
    158  CB        37.4870   -1.6700  121.4080 C.3   183  LEU183      0.0217
    159  CG        38.9360   -1.5870  120.9860 C.3   183  LEU183      0.0015
    160  CD1       39.7260   -0.9580  122.1120 C.3   183  LEU183      0.0000
    161  CD2       39.3280   -3.0050  120.5760 C.3   183  LEU183      0.0000
    162  N         31.7720    5.3090  121.1940 N.3   189  TYR189     -0.1227
    163  CA        32.3530    5.3940  122.5660 C.3   189  TYR189      0.1736
    164  C         31.5800    6.4890  123.3000 C.2   189  TYR189      0.2595
    165  O         31.4300    7.6160  122.7890 O.2   189  TYR189     -0.2718
    166  CB        33.8270    5.8020  122.5800 C.3   189  TYR189      0.0548
    167  CG        34.8140    4.8000  121.9790 C.ar  189  TYR189     -0.0200
    168  CD1       34.7010    3.4160  122.2160 C.ar  189  TYR189     -0.0009
    169  CD2       35.8530    5.2900  121.1890 C.ar  189  TYR189     -0.0009
    170  CE1       35.6400    2.5330  121.6450 C.ar  189  TYR189      0.0417
    171  CE2       36.7850    4.4150  120.6230 C.ar  189  TYR189      0.0417
    172  CZ        36.6810    3.0400  120.8470 C.ar  189  TYR189      0.1957
    173  OH        37.5980    2.2050  120.2850 O.3   189  TYR189     -0.2866
    174  N         31.0990    6.1230  124.4620 N.am  190  TYR190     -0.1962
    175  CA        30.3450    7.0330  125.3270 C.3   190  TYR190      0.1771
    176  C         31.3770    7.8560  126.1470 C.2   190  TYR190      0.2619
    177  O         31.9440    7.3720  127.1570 O.2   190  TYR190     -0.2715
    178  CB        29.5710    6.2500  126.4120 C.3   190  TYR190      0.0574
    179  CG        28.0900    5.9360  126.1150 C.ar  190  TYR190     -0.0198
    180  CD1       27.1380    6.9650  126.0180 C.ar  190  TYR190     -0.0009
    181  CD2       27.6770    4.6050  125.9670 C.ar  190  TYR190     -0.0009
    182  CE1       25.7890    6.6610  125.7790 C.ar  190  TYR190      0.0417
    183  CE2       26.3300    4.3020  125.7260 C.ar  190  TYR190      0.0417
    184  CZ        25.3860    5.3290  125.6350 C.ar  190  TYR190      0.1957
    185  OH        24.0770    5.0300  125.4070 O.3   190  TYR190     -0.2866
    186  N         31.6090    9.0400  125.6620 N.am  191  MET191     -0.1977
    187  CA        32.4660   10.0560  126.2600 C.3   191  MET191      0.1605
    188  C         31.6810   10.6800  127.4710 C.2   191  MET191      0.2287
    189  O         32.1650   11.5700  128.1710 O.2   191  MET191     -0.2864
    190  CB        32.7900   11.0820  125.1510 C.3   191  MET191      0.0413
    191  CG        34.2200   10.9880  124.6010 C.3   191  MET191      0.0598
    192  SD        35.4150   11.4770  125.8170 S.3   191  MET191     -0.1393
    193  CE        36.3450   10.0560  126.3380 C.3   191  MET191      0.0692
    194  N         32.8070    1.3160  130.2610 N.3   211  ASN211     -0.1240
    195  CA        34.1150    1.2600  129.6260 C.3   211  ASN211      0.1653
    196  C         35.0460    0.3290  130.3800 C.2   211  ASN211      0.2266
    197  O         36.0320    0.7730  130.9830 O.2   211  ASN211     -0.2867
    198  CB        34.7080    2.6530  129.5440 C.3   211  ASN211      0.1155
    199  CG        36.1640    2.7000  129.9710 C.2   211  ASN211      0.2627
    200  OD1       37.0540    2.5270  129.1410 O.2   211  ASN211     -0.2716
    201  ND2       36.4600    2.9280  131.2320 N.am  211  ASN211     -0.0877
    202  N         37.0810   -1.8760  129.2100 N.3   213  MET213     -0.1245
    203  CA        37.8680   -2.4070  128.1430 C.3   213  MET213      0.1570
    204  C         39.2960   -2.5640  128.4550 C.2   213  MET213      0.2261
    205  O         40.1700   -1.8600  127.9120 O.2   213  MET213     -0.2867
    206  CB        37.8450   -1.5940  126.8730 C.3   213  MET213      0.0387
    207  CG        38.4640   -0.2330  126.9990 C.3   213  MET213      0.0595
    208  SD        37.6210    0.9460  125.9850 S.3   213  MET213     -0.1393
    209  CE        36.2870    0.1580  125.1240 C.3   213  MET213      0.0692
    210  N         46.0240   -3.3240  131.0200 N.3   216  ILE216     -0.1245
    211  CA        47.3280   -3.6460  130.4920 C.3   216  ILE216      0.1561
    212  C         48.2940   -4.0980  131.5410 C.2   216  ILE216      0.2260
    213  O         48.7470   -3.3040  132.3810 O.2   216  ILE216     -0.2867
    214  CB        47.9960   -2.4350  129.8800 C.3   216  ILE216      0.0252
    215  CG1       47.2780   -1.9040  128.6520 C.3   216  ILE216      0.0019
    216  CG2       49.4330   -2.7270  129.4460 C.3   216  ILE216      0.0019
    217  CD1       47.1190   -0.3840  128.6810 C.3   216  ILE216      0.0001
    218  N         52.6640    6.1580  127.2610 N.3   235  ILE235     -0.1245
    219  CA        51.5920    5.7390  126.3450 C.3   235  ILE235      0.1561
    220  C         50.8510    6.9200  125.6980 C.2   235  ILE235      0.2260
    221  O         49.9910    7.5670  126.3240 O.2   235  ILE235     -0.2867
    222  CB        50.6210    4.7210  127.0630 C.3   235  ILE235      0.0252
    223  CG1       51.3140    3.3390  127.0480 C.3   235  ILE235      0.0019
    224  CG2       49.2170    4.7520  126.3900 C.3   235  ILE235      0.0019
    225  CD1       50.6220    2.2520  127.9060 C.3   235  ILE235      0.0001
    226  N         48.4230    8.4350  122.4560 N.3   237  HIS237     -0.1241
    227  CA        47.2240    7.9960  121.7470 C.3   237  HIS237      0.1621
    228  C         46.7370    9.0790  120.7860 C.2   237  HIS237      0.2264
    229  O         46.6340   10.2710  121.0450 O.2   237  HIS237     -0.2867
    230  CB        46.0660    7.5360  122.6470 C.3   237  HIS237      0.0745
    231  CG        44.7710    7.2830  121.9380 C.ar  237  HIS237      0.0817
    232  ND1       43.7670    8.1990  121.7560 N.ar  237  HIS237     -0.2268
    233  CD2       44.2960    6.1540  121.3600 C.ar  237  HIS237      0.1154
    234  CE1       42.7470    7.6620  121.1220 C.ar  237  HIS237      0.1986
    235  NE2       43.0520    6.4140  120.8720 N.ar  237  HIS237     -0.2212
    236  N         36.1470    9.4300  135.0030 N.3   259  HIS259     -0.1241
    237  CA        34.8730    8.7140  134.8290 C.3   259  HIS259      0.1621
    238  C         33.7250    9.3470  135.6130 C.2   259  HIS259      0.2264
    239  O         32.6640    8.7470  135.8420 O.2   259  HIS259     -0.2867
    240  CB        35.0140    7.2350  135.2770 C.3   259  HIS259      0.0745
    241  CG        35.7770    6.4600  134.2590 C.ar  259  HIS259      0.0817
    242  ND1       36.1260    7.0050  133.0410 N.ar  259  HIS259     -0.2268
    243  CD2       36.1980    5.1780  134.2150 C.ar  259  HIS259      0.1154
    244  CE1       36.7870    6.1000  132.3130 C.ar  259  HIS259      0.1986
    245  NE2       36.8160    4.9730  132.9910 N.ar  259  HIS259     -0.2212
@<TRIPOS>BOND
     1   149   148    2
     2   146   147    1
     3   148   147    1
     4   136   137    1
     5   136   135    1
     6   136   139    1
     7    55    56    1
     8    55    58    1
     9    55    54    1
    10   137   138    2
    11    56    57    2
    12    68    67    2
    13   147   150    1
    14    65    66    1
    15   139   140    1
    16    58    59    1
    17    67    66    1
    18    66    69    1
    19   150   151    1
    20   150   152    1
    21   140   141   ar
    22   140   142   ar
    23   141   143   ar
    24    59    60   ar
    25    59    61   ar
    26    71    72    1
    27   151   153    1
    28    74    73    2
    29    69    70    1
    30    60    62   ar
    31    61    63   ar
    32   142   144   ar
    33   154   155    1
    34   143   145   ar
    35    73    72    1
    36    72    75    1
    37   134   132    1
    38   173   172    1
    39   124   123    1
    40   124   125    1
    41   155   156    1
    42   155   158    1
    43    75    76    1
    44    75    77    1
    45    76    78    1
    46    62    64   ar
    47   126   125    1
    48   132   131    1
    49   161   159    1
    50   144   145   ar
    51    63    64   ar
    52   171   172   ar
    53   171   169   ar
    54   228   229    2
    55   228   227    1
    56   172   170   ar
    57   235   234   ar
    58   235   233   ar
    59   123   120    1
    60   159   158    1
    61   159   160    1
    62   156   157    1
    63   131   128    1
    64   131   133    1
    65   234   232   ar
    66   169   167   ar
    67   162   163    1
    68   233   231   ar
    69   128   129    1
    70   128   127    1
    71   170   168   ar
    72   227   226    1
    73   227   230    1
    74   232   231   ar
    75   120   119    1
    76   120   121    1
    77   231   230    1
    78   167   168   ar
    79   167   166    1
    80    79    80    1
    81   129   130    2
    82    82    81    2
    83   163   166    1
    84   163   164    1
    85   165   164    2
    86   121   122    2
    87    81    80    1
    88    80    83    1
    89   164   174   am
    90    86    84    1
    91    83    84    1
    92    84    85    1
    93   116   114   ar
    94   116   117   ar
    95   114   112   ar
    96   174   175    1
    97   118   117    1
    98   191   190    1
    99   191   192    1
   100   117   115   ar
   101    90    89    2
   102   112   111    1
   103   112   113   ar
   104   111   108    1
   105   209   208    1
   106   190   187    1
   107   115   113   ar
   108   175   176    1
   109   175   178    1
   110   185   184    1
   111   184   183   ar
   112   184   182   ar
   113   186   176   am
   114   186   187    1
   115   220   221    2
   116   220   219    1
   117   183   181   ar
   118   182   180   ar
   119    93    95   ar
   120    93    92   ar
   121   192   193    1
   122    91    92    1
   123    91    88    1
   124    89    88    1
   125    89    99   am
   126   181   179   ar
   127   208   207    1
   128   180   179   ar
   129    95    97   ar
   130   179   178    1
   131   176   177    2
   132    92    94   ar
   133    87    88    1
   134     6     5    1
   135    43    42    1
   136   187   188    1
   137   219   222    1
   138   219   218    1
   139   100   103    1
   140   100    99    1
   141   100   101    1
   142   107   108    1
   143   107   101   am
   144   103   104    1
   145   224   222    1
   146   108   109    1
   147   110   109    2
   148    97    98    1
   149    97    96   ar
   150    94    96   ar
   151   206   207    1
   152   206   203    1
   153    44    42    1
   154   223   222    1
   155   223   225    1
   156     7     5    1
   157   101   102    2
   158    42    41    1
   159     5     2    1
   160   188   189    2
   161   104   105    1
   162     1     2    1
   163   205   204    2
   164   203   204    1
   165   203   202    1
   166   105   106    1
   167    28    26    1
   168     2     3    1
   169   215   217    1
   170   215   214    1
   171    41    38    1
   172    33    32    2
   173   200   199    2
   174   216   214    1
   175    21    20   ar
   176    21    19   ar
   177    20    18   ar
   178   198   195    1
   179   198   199    1
   180    26    23    1
   181    26    27    1
   182    32    31    1
   183    32    37   am
   184   195   194    1
   185   195   196    1
   186    30    31    1
   187    30    24   am
   188     3     4    2
   189    38    37    1
   190    38    39    1
   191   214   211    1
   192    31    34    1
   193   199   201   am
   194    23    24    1
   195    23    22    1
   196    53    51   am
   197    24    25    2
   198   196   197    2
   199   211   210    1
   200   211   212    1
   201    19    17   ar
   202    18    15   ar
   203    27    29    1
   204    45    39   am
   205    45    46    1
   206    39    40    2
   207    51    50    1
   208    51    52    2
   209    34    36    1
   210    34    35    1
   211   212   213    2
   212    50    49    1
   213    17    15   ar
   214    17    16   ar
   215    15    13   ar
   216    46    49    1
   217    46    47    1
   218   244   245   ar
   219   244   242   ar
   220    11    10    2
   221   245   243   ar
   222    16    14   ar
   223   242   241   ar
   224    47    48    2
   225    13    12    1
   226    13    14   ar
   227    10     9    1
   228    12     9    1
   229   243   241   ar
   230   241   240    1
   231     9     8    1
   232   237   236    1
   233   237   240    1
   234   237   238    1
   235   238   239    2
