@<TRIPOS>MOLECULE
tmp/2hweA00.pdb
 252 242 0 0 0
SMALL
GASTEIGER

@<TRIPOS>ATOM
      1  N         48.6730    9.5970  127.8300 N.3    73  VAL73      -0.1245
      2  CA        47.3840    9.2920  128.5120 C.3    73  VAL73       0.1561
      3  C         47.6400    8.3750  129.7010 C.2    73  VAL73       0.2260
      4  O         46.7120    8.0360  130.4570 O.2    73  VAL73      -0.2867
      5  CB        46.4560    8.6510  127.4500 C.3    73  VAL73       0.0252
      6  CG1       46.2920    9.4810  126.1950 C.3    73  VAL73       0.0019
      7  CG2       46.9370    7.2670  127.0640 C.3    73  VAL73       0.0019
      8  N         47.0230   -1.3750  134.6180 N.3    95  TRP95      -0.1241
      9  CA        46.4070   -0.0590  134.3950 C.3    95  TRP95       0.1605
     10  C         45.1360   -0.2110  133.5970 C.2    95  TRP95       0.2264
     11  O         45.1060   -0.9200  132.5790 O.2    95  TRP95      -0.2867
     12  CB        47.4030    0.8560  133.6830 C.3    95  TRP95       0.0550
     13  CG        46.8140    2.1830  133.2000 C.ar   95  TRP95       0.0003
     14  CD1       46.5750    3.2790  133.9330 C.ar   95  TRP95       0.0946
     15  CD2       46.4290    2.4630  131.8630 C.ar   95  TRP95       0.0152
     16  NE1       46.0410    4.2710  133.0480 N.ar   95  TRP95      -0.2442
     17  CE2       45.9670    3.7730  131.8380 C.ar   95  TRP95       0.0810
     18  CE3       46.4390    1.7210  130.6770 C.ar   95  TRP95       0.0012
     19  CZ2       45.5120    4.4020  130.6740 C.ar   95  TRP95       0.0191
     20  CZ3       45.9720    2.3610  129.5100 C.ar   95  TRP95       0.0001
     21  CH2       45.5330    3.6390  129.5100 C.ar   95  TRP95       0.0015
     22  N         42.3060    0.7660  131.3300 N.3    97  ILE97      -0.2102
     23  CA        41.9750    1.2840  130.0280 C.3    97  ILE97       0.1504
     24  C         41.1070    2.5370  130.1280 C.2    97  ILE97       0.2576
     25  O         39.9530    2.4900  130.5650 O.2    97  ILE97      -0.2718
     26  CB        41.1890    0.1600  129.3680 C.3    97  ILE97       0.0264
     27  CG1       40.8120   -0.9330  130.3670 C.3    97  ILE97       0.0207
     28  CG2       41.9240   -0.5160  128.2270 C.3    97  ILE97       0.0020
     29  CD1       41.8050   -1.0380  131.5240 C.3    97  ILE97       0.0893
     30  N         41.6580    3.6630  129.7140 N.am   98  THR98      -0.1939
     31  CA        40.8910    4.9150  129.7400 C.3    98  THR98       0.2028
     32  C         41.7260    6.1250  129.3520 C.2    98  THR98       0.2642
     33  O         42.9170    6.0040  129.0250 O.2    98  THR98      -0.2714
     34  CB        40.3460    5.1810  131.1320 C.3    98  THR98       0.1808
     35  OG1       38.9880    5.5810  131.0390 O.3    98  THR98      -0.2208
     36  CG2       41.1110    6.2860  131.8600 C.3    98  THR98       0.0379
     37  N         41.0390    7.2540  129.4250 N.am   99  LEU99      -0.1963
     38  CA        41.5840    8.5560  129.0310 C.3    99  LEU99       0.1728
     39  C         41.5030    9.6000  130.1580 C.2    99  LEU99       0.2616
     40  O         42.4490   10.3650  130.3800 O.2    99  LEU99      -0.2715
     41  CB        40.7790    9.0970  127.8510 C.3    99  LEU99       0.0311
     42  CG        41.2060    8.4890  126.5180 C.3    99  LEU99       0.0022
     43  CD1       41.6900    9.5330  125.5090 C.3    99  LEU99       0.0001
     44  CD2       42.3490    7.4870  126.6690 C.3    99  LEU99       0.0001
     45  N         40.3710    9.5990  130.8320 N.am  100  GLN100     -0.1977
     46  CA        40.0430   10.5690  131.8930 C.3   100  GLN100      0.1601
     47  C         41.1190   10.5640  133.0110 C.2   100  GLN100      0.2287
     48  O         41.1320   11.4170  133.9160 O.2   100  GLN100     -0.2864
     49  CB        38.6080   10.2680  132.3680 C.3   100  GLN100      0.0394
     50  CG        37.7220    9.8060  131.1860 C.3   100  GLN100      0.0908
     51  CD        36.2600   10.3000  131.2120 C.2   100  GLN100      0.2608
     52  OE1       35.9840   11.4410  131.5820 O.2   100  GLN100     -0.2717
     53  NE2       35.2850    9.4920  130.8260 N.am  100  GLN100     -0.0878
     54  N         38.2300   15.9270  124.0130 N.3   109  PHE109     -0.1241
     55  CA        37.1160   15.0900  123.5620 C.3   109  PHE109      0.1605
     56  C         35.8360   15.6320  124.1610 C.2   109  PHE109      0.2264
     57  O         34.9570   16.1360  123.4450 O.2   109  PHE109     -0.2867
     58  CB        37.2860   13.6580  124.0490 C.3   109  PHE109      0.0534
     59  CG        38.3220   12.8920  123.2480 C.ar  109  PHE109     -0.0203
     60  CD1       37.9620   12.2960  122.0370 C.ar  109  PHE109     -0.0042
     61  CD2       39.6280   12.7940  123.7270 C.ar  109  PHE109     -0.0042
     62  CE1       38.9210   11.5940  121.3010 C.ar  109  PHE109     -0.0003
     63  CE2       40.5860   12.0950  122.9920 C.ar  109  PHE109     -0.0003
     64  CZ        40.2340   11.4930  121.7790 C.ar  109  PHE109     -0.0000
     65  N         36.0940    6.0810  116.9570 N.3   117  PHE117     -0.1241
     66  CA        37.4020    6.0760  116.2970 C.3   117  PHE117      0.1605
     67  C         38.2440    4.8290  116.4400 C.2   117  PHE117      0.2264
     68  O         38.0990    4.0670  117.4030 O.2   117  PHE117     -0.2867
     69  CB        38.4030    7.1170  116.8690 C.3   117  PHE117      0.0534
     70  CG        38.3830    7.4580  118.3820 C.ar  117  PHE117     -0.0203
     71  CD1       37.3100    8.1540  118.9620 C.ar  117  PHE117     -0.0042
     72  CD2       39.4840    7.1150  119.1890 C.ar  117  PHE117     -0.0042
     73  CE1       37.3390    8.5060  120.3210 C.ar  117  PHE117     -0.0003
     74  CE2       39.5100    7.4660  120.5480 C.ar  117  PHE117     -0.0003
     75  CZ        38.4380    8.1640  121.1130 C.ar  117  PHE117     -0.0000
     76  N         42.0300    3.9160  116.9420 N.3   119  SER119     -0.1217
     77  CA        43.0690    4.5780  117.6870 C.3   119  SER119      0.1889
     78  C         44.4180    4.1270  117.2550 C.2   119  SER119      0.2288
     79  O         44.6510    2.9310  117.0420 O.2   119  SER119     -0.2866
     80  CB        43.0140    4.1870  119.1590 C.3   119  SER119      0.2089
     81  OG        41.6690    3.9610  119.5520 O.3   119  SER119     -0.2183
     82  N         48.3250    4.0780  118.4940 N.3   121  ILE121     -0.1245
     83  CA        48.8810    3.7960  119.8130 C.3   121  ILE121      0.1561
     84  C         50.3240    3.5300  119.7260 C.2   121  ILE121      0.2260
     85  O         50.7570    2.6300  118.9880 O.2   121  ILE121     -0.2867
     86  CB        48.3500    2.5540  120.4820 C.3   121  ILE121      0.0252
     87  CG1       46.8470    2.4170  120.4220 C.3   121  ILE121      0.0019
     88  CG2       48.7130    2.5080  121.9730 C.3   121  ILE121      0.0019
     89  CD1       46.3360    1.2970  121.3290 C.3   121  ILE121      0.0001
     90  N         53.9440    3.5410  122.1430 N.3   123  LEU123     -0.1245
     91  CA        54.7280    3.2820  123.3710 C.3   123  LEU123      0.1561
     92  C         56.1310    3.9000  123.2540 C.2   123  LEU123      0.2260
     93  O         56.8690    3.6470  122.2870 O.2   123  LEU123     -0.2867
     94  CB        54.9550    1.7720  123.5390 C.3   123  LEU123      0.0270
     95  CG        53.7650    1.0330  124.1430 C.3   123  LEU123      0.0019
     96  CD1       52.4750    1.8480  124.1030 C.3   123  LEU123      0.0001
     97  CD2       53.4550   -0.2830  123.4240 C.3   123  LEU123      0.0001
     98  N         54.6630   -5.6780  126.1740 N.3   141  TYR141     -0.1227
     99  CA        53.3530   -5.0950  126.5000 C.3   141  TYR141      0.1736
    100  C         52.2320   -5.9650  125.9400 C.2   141  TYR141      0.2595
    101  O         52.2690   -6.3810  124.7710 O.2   141  TYR141     -0.2718
    102  CB        53.1960   -3.7150  125.8870 C.3   141  TYR141      0.0548
    103  CG        54.4100   -2.8630  126.1490 C.ar  141  TYR141     -0.0200
    104  CD1       55.6620   -3.3660  125.8130 C.ar  141  TYR141     -0.0009
    105  CD2       54.2660   -1.6050  126.7320 C.ar  141  TYR141     -0.0009
    106  CE1       56.7980   -2.5970  126.0650 C.ar  141  TYR141      0.0417
    107  CE2       55.4010   -0.8330  126.9830 C.ar  141  TYR141      0.0417
    108  CZ        56.6680   -1.3310  126.6510 C.ar  141  TYR141      0.1957
    109  OH        57.7780   -0.5870  126.8920 O.3   141  TYR141     -0.2866
    110  N         51.1190   -5.9880  126.9180 N.am  142  MET142     -0.1965
    111  CA        49.9320   -6.6590  126.3710 C.3   142  MET142      0.1736
    112  C         48.7200   -6.4510  127.2320 C.2   142  MET142      0.2616
    113  O         48.8600   -6.2350  128.4240 O.2   142  MET142     -0.2715
    114  CB        50.1030   -8.1710  126.3840 C.3   142  MET142      0.0427
    115  CG        49.3030   -8.8140  127.5240 C.3   142  MET142      0.0599
    116  SD        50.0880  -10.2490  128.2200 S.3   142  MET142     -0.1393
    117  CE        48.8970  -11.5600  128.3910 C.3   142  MET142      0.0692
    118  N         47.9730   -6.6240  126.6180 N.am  143  TYR143     -0.1974
    119  CA        46.5650   -6.2090  126.5950 C.3   143  TYR143      0.1639
    120  C         45.7060   -7.2960  127.1130 C.2   143  TYR143      0.2290
    121  O         45.7420   -8.4330  126.6190 O.2   143  TYR143     -0.2864
    122  CB        46.1470   -5.9440  125.1560 C.3   143  TYR143      0.0560
    123  CG        44.6700   -5.5820  124.9770 C.ar  143  TYR143     -0.0198
    124  CD1       44.1760   -4.3720  125.4810 C.ar  143  TYR143     -0.0009
    125  CD2       43.8130   -6.4580  124.3000 C.ar  143  TYR143     -0.0009
    126  CE1       42.8290   -4.0350  125.2990 C.ar  143  TYR143      0.0417
    127  CE2       42.4660   -6.1220  124.1190 C.ar  143  TYR143      0.0417
    128  CZ        41.9760   -4.9090  124.6160 C.ar  143  TYR143      0.1957
    129  OH        40.6690   -4.5770  124.4330 O.3   143  TYR143     -0.2866
    130  N         47.4210  -10.1990  122.5200 N.3   165  MET165     -0.1245
    131  CA        48.4800   -9.4410  121.8380 C.3   165  MET165      0.1570
    132  C         49.5050   -8.8830  122.7980 C.2   165  MET165      0.2261
    133  O         49.1600   -8.2230  123.7710 O.2   165  MET165     -0.2867
    134  CB        47.9450   -8.4060  120.8770 C.3   165  MET165      0.0387
    135  CG        49.1440   -7.7090  120.2880 C.3   165  MET165      0.0595
    136  SD        49.2010   -6.0880  121.1050 S.3   165  MET165     -0.1393
    137  CE        50.8200   -5.5980  120.4720 C.3   165  MET165      0.0692
    138  N         53.2970   -7.0300  122.3100 N.3   167  ILE167     -0.1245
    139  CA        54.2860   -6.3410  121.4430 C.3   167  ILE167      0.1561
    140  C         55.5840   -6.3640  122.2460 C.2   167  ILE167      0.2260
    141  O         55.5930   -6.2740  123.4920 O.2   167  ILE167     -0.2867
    142  CB        53.6530   -4.9980  121.1000 C.3   167  ILE167      0.0252
    143  CG1       54.7290   -4.0440  120.5530 C.3   167  ILE167      0.0019
    144  CG2       52.9650   -4.3900  122.3600 C.3   167  ILE167      0.0019
    145  CD1       53.9160   -2.7540  120.1170 C.3   167  ILE167      0.0001
    146  N         51.3070    0.7490  116.7780 N.3   178  PHE178     -0.1241
    147  CA        50.3450   -0.1320  116.1960 C.3   178  PHE178      0.1605
    148  C         49.0250    0.5670  116.2690 C.2   178  PHE178      0.2264
    149  O         48.9170    1.6840  116.7930 O.2   178  PHE178     -0.2867
    150  CB        50.3670   -1.4440  116.9690 C.3   178  PHE178      0.0534
    151  CG        50.1730   -1.2440  118.4680 C.ar  178  PHE178     -0.0203
    152  CD1       48.8880   -1.0380  118.9670 C.ar  178  PHE178     -0.0042
    153  CD2       51.2730   -1.2630  119.3380 C.ar  178  PHE178     -0.0042
    154  CE1       48.6900   -0.8630  120.3370 C.ar  178  PHE178     -0.0003
    155  CE2       51.0750   -1.0910  120.7120 C.ar  178  PHE178     -0.0003
    156  CZ        49.7820   -0.8940  121.2110 C.ar  178  PHE178     -0.0000
    157  N         44.4770    0.1630  116.1050 N.3   180  ILE180     -0.1245
    158  CA        43.3870   -0.5820  116.6300 C.3   180  ILE180      0.1561
    159  C         42.0100   -0.1710  116.1510 C.2   180  ILE180      0.2260
    160  O         41.7080    1.0310  116.0240 O.2   180  ILE180     -0.2867
    161  CB        43.4330   -0.3840  118.1190 C.3   180  ILE180      0.0252
    162  CG1       44.7910   -0.7800  118.6900 C.3   180  ILE180      0.0019
    163  CG2       42.3780   -1.1850  118.8570 C.3   180  ILE180      0.0019
    164  CD1       44.7160   -1.1720  120.1580 C.3   180  ILE180      0.0001
    165  N         36.7880   -0.3940  119.4340 N.3   183  LEU183     -0.1301
    166  CA        36.4150   -1.5010  120.3070 C.3   183  LEU183      0.1247
    167  C         35.1360   -1.2560  121.0390 C.3   183  LEU183      0.2009
    168  O         35.5220   -1.1080  122.2270 O.3   183  LEU183     -0.2188
    169  CB        37.4900   -1.6670  121.4080 C.3   183  LEU183      0.0217
    170  CG        38.9390   -1.5840  120.9860 C.3   183  LEU183      0.0015
    171  CD1       39.7290   -0.9550  122.1120 C.3   183  LEU183      0.0000
    172  CD2       39.3310   -3.0020  120.5760 C.3   183  LEU183      0.0000
    173  N         31.7750    5.3120  121.1940 N.3   189  TYR189     -0.1227
    174  CA        32.3550    5.3970  122.5660 C.3   189  TYR189      0.1736
    175  C         31.6030    6.4870  123.3390 C.2   189  TYR189      0.2595
    176  O         31.4770    7.6290  122.8660 O.2   189  TYR189     -0.2718
    177  CB        33.8300    5.8050  122.5800 C.3   189  TYR189      0.0548
    178  CG        34.8140    4.8150  121.9650 C.ar  189  TYR189     -0.0200
    179  CD1       34.6840    3.4400  122.1930 C.ar  189  TYR189     -0.0009
    180  CD2       35.8640    5.3060  121.1830 C.ar  189  TYR189     -0.0009
    181  CE1       35.6150    2.5510  121.6310 C.ar  189  TYR189      0.0417
    182  CE2       36.7910    4.4210  120.6220 C.ar  189  TYR189      0.0417
    183  CZ        36.6670    3.0440  120.8460 C.ar  189  TYR189      0.1957
    184  OH        37.5720    2.1870  120.3010 O.3   189  TYR189     -0.2866
    185  N         31.1110    6.1030  124.4990 N.am  190  TYR190     -0.1962
    186  CA        30.3840    7.0130  125.4040 C.3   190  TYR190      0.1771
    187  C         31.3720    7.8530  126.2210 C.2   190  TYR190      0.2619
    188  O         31.9930    7.3630  127.1750 O.2   190  TYR190     -0.2715
    189  CB        29.5880    6.2130  126.4560 C.3   190  TYR190      0.0574
    190  CG        28.1130    5.9170  126.1340 C.ar  190  TYR190     -0.0198
    191  CD1       27.1700    6.9540  126.0550 C.ar  190  TYR190     -0.0009
    192  CD2       27.6950    4.5920  125.9420 C.ar  190  TYR190     -0.0009
    193  CE1       25.8230    6.6660  125.7960 C.ar  190  TYR190      0.0417
    194  CE2       26.3490    4.3050  125.6800 C.ar  190  TYR190      0.0417
    195  CZ        25.4120    5.3410  125.6100 C.ar  190  TYR190      0.1957
    196  OH        24.1040    5.0590  125.3650 O.3   190  TYR190     -0.2866
    197  N         31.5130    9.1070  125.8420 N.am  191  MET191     -0.1977
    198  CA        32.3920   10.0420  126.5650 C.3   191  MET191      0.1605
    199  C         31.7360   10.3900  127.9020 C.2   191  MET191      0.2287
    200  O         32.4150   10.7360  128.8810 O.2   191  MET191     -0.2864
    201  CB        32.5950   11.3180  125.7480 C.3   191  MET191      0.0413
    202  CG        34.0310   11.8450  125.8040 C.3   191  MET191      0.0598
    203  SD        35.2430   10.6000  125.4140 S.3   191  MET191     -0.1393
    204  CE        34.6300    9.5360  124.1270 C.3   191  MET191      0.0692
    205  N         30.5350    7.2280  133.0850 N.3   207  SER207     -0.1273
    206  CA        31.2200    6.8210  131.8740 C.3   207  SER207      0.1575
    207  C         32.0260    5.6260  132.3500 C.3   207  SER207      0.2036
    208  O         33.1990    5.8340  132.0400 O.3   207  SER207     -0.2187
    209  CB        32.2520    7.7690  131.3140 C.3   207  SER207      0.2036
    210  OG        33.2050    7.3280  130.3900 O.3   207  SER207     -0.2187
    211  N         32.8100    1.3190  130.2610 N.3   211  ASN211     -0.1240
    212  CA        34.1180    1.2630  129.6260 C.3   211  ASN211      0.1653
    213  C         35.0620    0.4280  130.3800 C.2   211  ASN211      0.2266
    214  O         36.0800    0.8930  130.8850 O.2   211  ASN211     -0.2867
    215  CB        34.6530    2.6670  129.4230 C.3   211  ASN211      0.1155
    216  CG        35.6510    3.0870  130.5020 C.2   211  ASN211      0.2627
    217  OD1       36.7180    3.6050  130.1830 O.2   211  ASN211     -0.2716
    218  ND2       35.3630    2.8890  131.7750 N.am  211  ASN211     -0.0877
    219  N         37.2040   -1.7800  129.4090 N.3   213  MET213     -0.1245
    220  CA        37.8720   -2.2410  128.3110 C.3   213  MET213      0.1570
    221  C         39.3030   -2.4030  128.4630 C.2   213  MET213      0.2261
    222  O         40.0690   -1.8510  127.6810 O.2   213  MET213     -0.2867
    223  CB        37.5600   -1.4550  127.0550 C.3   213  MET213      0.0387
    224  CG        38.6480   -0.5010  126.6360 C.3   213  MET213      0.0595
    225  SD        37.9540    1.0580  126.1760 S.3   213  MET213     -0.1393
    226  CE        36.3330    0.8090  125.4740 C.3   213  MET213      0.0692
    227  N         46.0270   -3.3210  131.0200 N.3   216  ILE216     -0.1245
    228  CA        47.3310   -3.6430  130.4930 C.3   216  ILE216      0.1561
    229  C         48.2970   -4.0950  131.5420 C.2   216  ILE216      0.2260
    230  O         48.7500   -3.3010  132.3810 O.2   216  ILE216     -0.2867
    231  CB        47.9990   -2.4320  129.8800 C.3   216  ILE216      0.0252
    232  CG1       47.2810   -1.9010  128.6520 C.3   216  ILE216      0.0019
    233  CG2       49.4360   -2.7240  129.4460 C.3   216  ILE216      0.0019
    234  CD1       47.1220   -0.3810  128.6810 C.3   216  ILE216      0.0001
    235  N         52.6670    6.1610  127.2610 N.3   235  ILE235     -0.1245
    236  CA        51.5950    5.7420  126.3450 C.3   235  ILE235      0.1561
    237  C         50.8540    6.9230  125.6980 C.2   235  ILE235      0.2260
    238  O         49.9940    7.5700  126.3240 O.2   235  ILE235     -0.2867
    239  CB        50.6240    4.7240  127.0630 C.3   235  ILE235      0.0252
    240  CG1       51.3170    3.3420  127.0480 C.3   235  ILE235      0.0019
    241  CG2       49.2200    4.7550  126.3900 C.3   235  ILE235      0.0019
    242  CD1       50.6250    2.2550  127.9060 C.3   235  ILE235      0.0001
    243  N         48.4260    8.4380  122.4560 N.3   237  HIS237     -0.1241
    244  CA        47.2270    7.9990  121.7470 C.3   237  HIS237      0.1621
    245  C         46.7400    9.0820  120.7860 C.2   237  HIS237      0.2264
    246  O         46.6370   10.2740  121.0450 O.2   237  HIS237     -0.2867
    247  CB        46.0690    7.5390  122.6470 C.3   237  HIS237      0.0745
    248  CG        44.7740    7.2860  121.9380 C.ar  237  HIS237      0.0817
    249  ND1       43.7700    8.2020  121.7560 N.ar  237  HIS237     -0.2268
    250  CD2       44.2990    6.1570  121.3600 C.ar  237  HIS237      0.1154
    251  CE1       42.7500    7.6650  121.1220 C.ar  237  HIS237      0.1986
    252  NE2       43.0550    6.4170  120.8720 N.ar  237  HIS237     -0.2212
@<TRIPOS>BOND
     1   160   159    2
     2   157   158    1
     3   159   158    1
     4   147   148    1
     5   147   146    1
     6   147   150    1
     7   148   149    2
     8    66    67    1
     9    66    69    1
    10    66    65    1
    11    67    68    2
    12   158   161    1
    13    69    70    1
    14    76    77    1
    15   150   151    1
    16    79    78    2
    17    78    77    1
    18    77    80    1
    19   161   162    1
    20   161   163    1
    21    70    71   ar
    22    70    72   ar
    23   151   152   ar
    24   151   153   ar
    25    82    83    1
    26   162   164    1
    27    71    73   ar
    28   152   154   ar
    29    85    84    2
    30    80    81    1
    31    72    74   ar
    32   153   155   ar
    33   165   166    1
    34    84    83    1
    35    83    86    1
    36   145   143    1
    37   135   134    1
    38   135   136    1
    39   184   183    1
    40   166   167    1
    41   166   169    1
    42    73    75   ar
    43   154   156   ar
    44    87    86    1
    45    87    89    1
    46   137   136    1
    47    86    88    1
    48    74    75   ar
    49   143   142    1
    50   172   170    1
    51   182   183   ar
    52   182   180   ar
    53   155   156   ar
    54   245   246    2
    55   245   244    1
    56   183   181   ar
    57   252   251   ar
    58   252   250   ar
    59   134   131    1
    60   170   169    1
    61   170   171    1
    62   167   168    1
    63   142   139    1
    64   142   144    1
    65   251   249   ar
    66   180   178   ar
    67   173   174    1
    68    62    64   ar
    69    62    60   ar
    70   250   248   ar
    71   139   140    1
    72   139   138    1
    73   181   179   ar
    74   244   243    1
    75   244   247    1
    76   249   248   ar
    77    64    63   ar
    78   131   130    1
    79   131   132    1
    80   248   247    1
    81   178   179   ar
    82   178   177    1
    83    60    59   ar
    84    90    91    1
    85   140   141    2
    86    93    92    2
    87   174   177    1
    88   174   175    1
    89   132   133    2
    90   176   175    2
    91    63    61   ar
    92    59    61   ar
    93    59    58    1
    94    92    91    1
    95   175   185   am
    96    91    94    1
    97    97    95    1
    98    57    56    2
    99    94    95    1
   100    55    54    1
   101    55    58    1
   102    55    56    1
   103    96    95    1
   104   127   125   ar
   105   127   128   ar
   106   204   203    1
   107   125   123   ar
   108   129   128    1
   109   185   186    1
   110   128   126   ar
   111   101   100    2
   112   123   122    1
   113   123   124   ar
   114   122   119    1
   115   126   124   ar
   116   196   195    1
   117   186   187    1
   118   186   189    1
   119   203   202    1
   120   226   225    1
   121    43    42    1
   122   195   194   ar
   123   195   193   ar
   124   194   192   ar
   125   237   238    2
   126   237   236    1
   127   201   202    1
   128   201   198    1
   129   193   191   ar
   130   104   106   ar
   131   104   103   ar
   132   197   187   am
   133   197   198    1
   134   102   103    1
   135   102    99    1
   136   100    99    1
   137   100   110   am
   138   192   190   ar
   139   191   190   ar
   140   106   108   ar
   141   190   189    1
   142   103   105   ar
   143    98    99    1
   144   225   224    1
   145     6     5    1
   146   187   188    2
   147   236   239    1
   148   236   235    1
   149   111   114    1
   150   111   110    1
   151   111   112    1
   152   114   115    1
   153   241   239    1
   154    42    44    1
   155    42    41    1
   156   198   199    1
   157   119   118    1
   158   119   120    1
   159   118   112   am
   160   121   120    2
   161   224   223    1
   162   108   109    1
   163   108   107   ar
   164   105   107   ar
   165   240   239    1
   166   240   242    1
   167   223   220    1
   168     7     5    1
   169   112   113    2
   170     5     2    1
   171   115   116    1
   172   222   221    2
   173     1     2    1
   174    41    38    1
   175   199   200    2
   176   116   117    1
   177    28    26    1
   178   220   221    1
   179   220   219    1
   180     2     3    1
   181   232   234    1
   182   232   231    1
   183    33    32    2
   184    38    37    1
   185    38    39    1
   186    32    37   am
   187    32    31    1
   188    26    23    1
   189    26    27    1
   190   215   212    1
   191   215   216    1
   192   233   231    1
   193    21    20   ar
   194    21    19   ar
   195    20    18   ar
   196   212   211    1
   197   212   213    1
   198     3     4    2
   199    30    31    1
   200    30    24   am
   201    31    34    1
   202   231   228    1
   203    23    24    1
   204    23    22    1
   205    24    25    2
   206    39    40    2
   207    39    45   am
   208   217   216    2
   209    27    29    1
   210   213   214    2
   211   210   209    1
   212   228   227    1
   213   228   229    1
   214   216   218   am
   215    19    17   ar
   216    18    15   ar
   217    53    51   am
   218    45    46    1
   219    35    34    1
   220    34    36    1
   221    50    51    1
   222    50    49    1
   223    51    52    2
   224   209   206    1
   225    22    29    1
   226   229   230    2
   227    17    15   ar
   228    17    16   ar
   229    15    13   ar
   230   206   207    1
   231   206   205    1
   232    46    49    1
   233    46    47    1
   234   208   207    1
   235    11    10    2
   236    47    48    2
   237    16    14   ar
   238    13    12    1
   239    13    14   ar
   240    10     9    1
   241    12     9    1
   242     9     8    1
