@<TRIPOS>MOLECULE
tmp/2hwfA00.pdb
 190 182 0 0 0
SMALL
GASTEIGER

@<TRIPOS>ATOM
      1  N         48.4370    9.6320  126.8790 N.3    73  VAL73      -0.1245
      2  CA        47.1600    9.3380  127.5870 C.3    73  VAL73       0.1561
      3  C         47.4320    8.4160  128.7680 C.2    73  VAL73       0.2260
      4  O         46.5160    8.0850  129.5430 O.2    73  VAL73      -0.2867
      5  CB        46.2040    8.7080  126.5430 C.3    73  VAL73       0.0252
      6  CG1       46.0220    9.5410  125.2930 C.3    73  VAL73       0.0019
      7  CG2       46.6640    7.3200  126.1450 C.3    73  VAL73       0.0019
      8  N         47.3730   -1.1430  133.1060 N.3    95  TRP95      -0.1241
      9  CA        46.5900    0.1010  133.1880 C.3    95  TRP95       0.1605
     10  C         45.2740   -0.0730  132.4200 C.2    95  TRP95       0.2264
     11  O         45.2020   -0.8270  131.4380 O.2    95  TRP95      -0.2867
     12  CB        47.4180    1.2450  132.5880 C.3    95  TRP95       0.0550
     13  CG        46.6180    2.5220  132.3220 C.ar   95  TRP95       0.0003
     14  CD1       46.2460    3.4460  133.2190 C.ar   95  TRP95       0.0946
     15  CD2       46.1450    2.9330  131.0510 C.ar   95  TRP95       0.0152
     16  NE1       45.5300    4.4610  132.5050 N.ar   95  TRP95      -0.2442
     17  CE2       45.4850    4.1400  131.2340 C.ar   95  TRP95       0.0810
     18  CE3       46.2220    2.3840  129.7670 C.ar   95  TRP95       0.0012
     19  CZ2       44.8880    4.8520  130.1870 C.ar   95  TRP95       0.0191
     20  CZ3       45.6150    3.1060  128.7190 C.ar   95  TRP95       0.0001
     21  CH2       44.9810    4.2820  128.9210 C.ar   95  TRP95       0.0015
     22  N         42.5940    0.9590  129.9590 N.3    97  ILE97      -0.1230
     23  CA        42.4820    1.7210  128.7150 C.3    97  ILE97       0.1669
     24  C         41.2720    2.6250  128.7730 C.2    97  ILE97       0.2140
     25  O         40.2030    2.2360  129.2700 O.2    97  ILE97      -0.4596
     26  CB        42.3630    0.8160  127.4940 C.3    97  ILE97       0.0266
     27  CG1       41.3260   -0.2890  127.6570 C.3    97  ILE97       0.0019
     28  CG2       43.6780    0.1210  127.1440 C.3    97  ILE97       0.0020
     29  CD1       40.7450   -0.7540  126.3200 C.3    97  ILE97       0.0001
     30  N         41.5300    3.7740  128.2470 N.2    98  THR98      -0.2302
     31  CA        40.6070    4.8790  128.2060 C.3    98  THR98       0.2172
     32  C         41.3280    6.0630  128.7910 C.2    98  THR98       0.2668
     33  O         42.1470    5.9110  129.7140 O.2    98  THR98      -0.2711
     34  CB        39.3430    4.5820  129.0180 C.3    98  THR98       0.2265
     35  OG1       39.1220    5.6160  129.9680 O.3    98  THR98      -0.2165
     36  CG2       39.4120    3.2630  129.7850 C.3    98  THR98       0.2420
     37  N         40.9960    7.1650  128.2130 N.am   99  LEU99      -0.1975
     38  CA        41.5480    8.4480  128.5710 C.3    99  LEU99       0.1596
     39  C         41.0480    8.8400  129.9560 C.2    99  LEU99       0.2287
     40  O         40.6220    7.9810  130.7470 O.2    99  LEU99      -0.2864
     41  CB        41.1120    9.4310  127.5040 C.3    99  LEU99       0.0297
     42  CG        40.5130    8.7010  126.2980 C.3    99  LEU99       0.0022
     43  CD1       39.2380    9.3540  125.7720 C.3    99  LEU99       0.0001
     44  CD2       41.4700    8.6190  125.1090 C.3    99  LEU99       0.0001
     45  N         35.6020    6.2390  116.2840 N.3   117  PHE117     -0.1241
     46  CA        36.8360    6.3130  115.5050 C.3   117  PHE117      0.1605
     47  C         37.7870    5.1670  115.7440 C.2   117  PHE117      0.2264
     48  O         37.8090    4.5690  116.8290 O.2   117  PHE117     -0.2867
     49  CB        37.5960    7.5920  115.8790 C.3   117  PHE117      0.0534
     50  CG        37.7610    7.7860  117.3950 C.ar  117  PHE117     -0.0203
     51  CD1       36.7700    8.4520  118.1300 C.ar  117  PHE117     -0.0042
     52  CD2       38.9050    7.3030  118.0440 C.ar  117  PHE117     -0.0042
     53  CE1       36.9240    8.6350  119.5110 C.ar  117  PHE117     -0.0003
     54  CE2       39.0580    7.4870  119.4250 C.ar  117  PHE117     -0.0003
     55  CZ        38.0670    8.1520  120.1580 C.ar  117  PHE117     -0.0000
     56  N         41.4420    3.9910  116.2510 N.3   119  SER119     -0.1217
     57  CA        42.5470    4.5480  117.0190 C.3   119  SER119      0.1889
     58  C         43.8960    3.9830  116.5940 C.2   119  SER119      0.2288
     59  O         44.0920    2.7590  116.5500 O.2   119  SER119     -0.2866
     60  CB        42.3380    4.2350  118.4990 C.3   119  SER119      0.2089
     61  OG        40.9470    4.1460  118.7780 O.3   119  SER119     -0.2183
     62  N         47.8960    3.9730  117.3710 N.3   121  ILE121     -0.1245
     63  CA        48.7370    3.9750  118.5500 C.3   121  ILE121      0.1561
     64  C         50.2100    4.1010  118.1960 C.2   121  ILE121      0.2260
     65  O         50.6090    3.9140  117.0360 O.2   121  ILE121     -0.2867
     66  CB        48.4940    2.6710  119.2940 C.3   121  ILE121      0.0252
     67  CG1       47.5280    2.8460  120.4650 C.3   121  ILE121      0.0019
     68  CG2       49.7690    2.0590  119.8640 C.3   121  ILE121      0.0019
     69  CD1       46.3600    3.7830  120.1380 C.3   121  ILE121      0.0001
     70  N         53.9910    3.6940  120.6940 N.3   123  LEU123     -0.1245
     71  CA        54.7040    3.4900  121.9560 C.3   123  LEU123      0.1561
     72  C         56.0260    4.2250  121.8800 C.2   123  LEU123      0.2260
     73  O         56.5370    4.5170  120.7870 O.2   123  LEU123     -0.2867
     74  CB        54.9140    1.9990  122.1970 C.3   123  LEU123      0.0270
     75  CG        53.6850    1.3360  122.8300 C.3   123  LEU123      0.0019
     76  CD1       52.7070    2.3490  123.4360 C.3   123  LEU123      0.0001
     77  CD2       52.8630    0.5180  121.8330 C.3   123  LEU123      0.0001
     78  N         47.8700   -6.4900  124.8400 N.3   143  TYR143     -0.1241
     79  CA        46.5180   -5.9830  125.0430 C.3   143  TYR143      0.1605
     80  C         45.6470   -7.1110  125.5790 C.2   143  TYR143      0.2264
     81  O         45.9390   -8.2970  125.3770 O.2   143  TYR143     -0.2867
     82  CB        45.9620   -5.5150  123.7010 C.3   143  TYR143      0.0534
     83  CG        44.5290   -5.0240  123.7990 C.ar  143  TYR143     -0.0201
     84  CD1       44.1910   -4.0900  124.7780 C.ar  143  TYR143     -0.0009
     85  CD2       43.5610   -5.5110  122.9140 C.ar  143  TYR143     -0.0009
     86  CE1       42.8750   -3.6290  124.8710 C.ar  143  TYR143      0.0417
     87  CE2       42.2450   -5.0520  123.0070 C.ar  143  TYR143      0.0417
     88  CZ        41.9020   -4.1100  123.9850 C.ar  143  TYR143      0.1957
     89  OH        40.6250   -3.6560  124.0750 O.3   143  TYR143     -0.2866
     90  N         50.6130    0.6980  116.1420 N.3   178  PHE178     -0.1241
     91  CA        49.5570   -0.1580  115.4700 C.3   178  PHE178      0.1605
     92  C         48.1460    0.5150  115.3800 C.2   178  PHE178      0.2264
     93  O         47.8610    1.6140  115.7130 O.2   178  PHE178     -0.2867
     94  CB        49.4020   -1.4740  116.2340 C.3   178  PHE178      0.0534
     95  CG        49.1970   -1.3500  117.7590 C.ar  178  PHE178     -0.0203
     96  CD1       49.0920   -0.0950  118.3910 C.ar  178  PHE178     -0.0042
     97  CD2       49.1110   -2.5200  118.5260 C.ar  178  PHE178     -0.0042
     98  CE1       48.8970   -0.0250  119.7860 C.ar  178  PHE178     -0.0003
     99  CE2       48.9160   -2.4480  119.9130 C.ar  178  PHE178     -0.0003
    100  CZ        48.8080   -1.2030  120.5430 C.ar  178  PHE178     -0.0000
    101  N         43.5610    0.5460  115.2270 N.3   180  ILE180     -0.1245
    102  CA        42.5410   -0.1610  115.8500 C.3   180  ILE180      0.1561
    103  C         41.2420    0.3640  115.6900 C.2   180  ILE180      0.2260
    104  O         41.0330    1.5590  115.8840 O.2   180  ILE180     -0.2867
    105  CB        42.7580   -0.1050  117.2640 C.3   180  ILE180      0.0252
    106  CG1       44.0420   -0.7780  117.6620 C.3   180  ILE180      0.0019
    107  CG2       41.6180   -0.7660  117.9920 C.3   180  ILE180      0.0019
    108  CD1       44.1130   -0.9910  119.1600 C.3   180  ILE180      0.0001
    109  N         36.2990   -0.0590  118.2310 N.3   183  LEU183     -0.1245
    110  CA        36.0660   -1.2400  119.0690 C.3   183  LEU183      0.1561
    111  C         34.6430   -1.2060  119.5860 C.2   183  LEU183      0.2260
    112  O         33.6930   -1.4810  118.8310 O.2   183  LEU183     -0.2867
    113  CB        36.9960   -1.2400  120.2860 C.3   183  LEU183      0.0270
    114  CG        38.4500   -0.9150  119.9610 C.3   183  LEU183      0.0019
    115  CD1       39.1720   -0.2180  121.1180 C.3   183  LEU183      0.0001
    116  CD2       39.2790   -2.1600  119.6430 C.3   183  LEU183      0.0001
    117  N         31.4350    5.5490  120.7250 N.3   189  TYR189     -0.1227
    118  CA        31.9780    5.6770  122.0890 C.3   189  TYR189      0.1736
    119  C         31.2200    6.7530  122.8680 C.2   189  TYR189      0.2595
    120  O         31.1360    7.9130  122.4380 O.2   189  TYR189     -0.2718
    121  CB        33.4490    6.1060  122.0540 C.3   189  TYR189      0.0548
    122  CG        34.4020    5.0260  121.5440 C.ar  189  TYR189     -0.0200
    123  CD1       34.2200    3.6900  121.9190 C.ar  189  TYR189     -0.0009
    124  CD2       35.4610    5.3820  120.7020 C.ar  189  TYR189     -0.0009
    125  CE1       35.1000    2.7070  121.4490 C.ar  189  TYR189      0.0417
    126  CE2       36.3410    4.4000  120.2320 C.ar  189  TYR189      0.0417
    127  CZ        36.1610    3.0630  120.6050 C.ar  189  TYR189      0.1957
    128  OH        37.0170    2.1100  120.1490 O.3   189  TYR189     -0.2866
    129  N         30.6870    6.3400  123.9990 N.am  190  TYR190     -0.1962
    130  CA        29.9270    7.2310  124.8860 C.3   190  TYR190      0.1771
    131  C         30.8710    8.2520  125.5240 C.2   190  TYR190      0.2619
    132  O         31.6550    7.9210  126.4260 O.2   190  TYR190     -0.2715
    133  CB        29.2460    6.4150  125.9850 C.3   190  TYR190      0.0574
    134  CG        27.8110    6.0210  125.6310 C.ar  190  TYR190     -0.0198
    135  CD1       26.8380    7.0110  125.4480 C.ar  190  TYR190     -0.0009
    136  CD2       27.4700    4.6700  125.4890 C.ar  190  TYR190     -0.0009
    137  CE1       25.5250    6.6510  125.1250 C.ar  190  TYR190      0.0417
    138  CE2       26.1570    4.3100  125.1650 C.ar  190  TYR190      0.0417
    139  CZ        25.1840    5.3000  124.9840 C.ar  190  TYR190      0.1957
    140  OH        23.9080    4.9500  124.6700 O.3   190  TYR190     -0.2866
    141  N         30.7650    9.4740  125.0290 N.am  191  MET191     -0.1977
    142  CA        31.5900   10.5980  125.4980 C.3   191  MET191      0.1605
    143  C         31.0650   11.1150  126.8440 C.2   191  MET191      0.2287
    144  O         31.6490   12.0240  127.4490 O.2   191  MET191     -0.2864
    145  CB        31.5670   11.7330  124.4750 C.3   191  MET191      0.0413
    146  CG        32.9560   12.0470  123.9150 C.3   191  MET191      0.0598
    147  SD        34.2340   11.0340  124.6320 S.3   191  MET191     -0.1393
    148  CE        35.7030   11.1030  123.6290 C.3   191  MET191      0.0692
    149  N         32.0320    1.9160  128.7200 N.3   211  ASN211     -0.1240
    150  CA        33.4050    1.7870  128.2050 C.3   211  ASN211      0.1653
    151  C         34.2960    1.0010  129.1720 C.2   211  ASN211      0.2266
    152  O         34.7380    1.5280  130.2040 O.2   211  ASN211     -0.2867
    153  CB        34.0170    3.1710  127.9890 C.3   211  ASN211      0.1155
    154  CG        32.9670    4.2800  127.8960 C.2   211  ASN211      0.2627
    155  OD1       33.2750    5.3800  127.4390 O.2   211  ASN211     -0.2716
    156  ND2       31.7320    4.0570  128.3050 N.am  211  ASN211     -0.0877
    157  N         36.8210   -1.4900  127.6250 N.3   213  MET213     -0.1245
    158  CA        37.5320   -2.1540  126.5230 C.3   213  MET213      0.1570
    159  C         38.7690   -2.8970  127.0380 C.2   213  MET213      0.2261
    160  O         39.8600   -2.7980  126.4570 O.2   213  MET213     -0.2867
    161  CB        37.9690   -1.1070  125.4970 C.3   213  MET213      0.0387
    162  CG        37.2830    0.2470  125.7020 C.3   213  MET213      0.0595
    163  SD        37.0660    1.1560  124.1860 S.3   213  MET213     -0.1393
    164  CE        35.5180    2.0350  124.2180 C.3   213  MET213      0.0692
    165  N         45.3710   -3.4320  129.2460 N.3   216  ILE216     -0.1245
    166  CA        46.6260   -3.7460  128.5490 C.3   216  ILE216      0.1561
    167  C         47.7370   -3.9420  129.5750 C.2   216  ILE216      0.2260
    168  O         47.9970   -3.0640  130.4110 O.2   216  ILE216     -0.2867
    169  CB        47.0220   -2.6000  127.6170 C.3   216  ILE216      0.0252
    170  CG1       48.3500   -1.9480  128.0110 C.3   216  ILE216      0.0019
    171  CG2       45.9950   -1.4690  127.5880 C.3   216  ILE216      0.0019
    172  CD1       49.1880   -1.5190  126.8050 C.3   216  ILE216      0.0001
    173  N         52.7710    6.7360  126.0140 N.3   235  ILE235     -0.1245
    174  CA        51.6580    6.3720  125.1620 C.3   235  ILE235      0.1561
    175  C         50.9960    7.5900  124.5730 C.2   235  ILE235      0.2260
    176  O         50.6760    8.5560  125.2850 O.2   235  ILE235     -0.2867
    177  CB        50.6370    5.5630  125.9590 C.3   235  ILE235      0.0252
    178  CG1       50.9900    4.0740  126.0170 C.3   235  ILE235      0.0019
    179  CG2       49.2260    5.6370  125.3730 C.3   235  ILE235      0.0019
    180  CD1       50.4410    3.3730  127.2610 C.3   235  ILE235      0.0001
    181  N         48.1090    8.5810  121.4170 N.3   237  HIS237     -0.1241
    182  CA        46.9210    8.1070  120.7400 C.3   237  HIS237      0.1621
    183  C         46.4210    9.1450  119.7540 C.2   237  HIS237      0.2264
    184  O         46.3920   10.3480  120.0540 O.2   237  HIS237     -0.2867
    185  CB        45.8340    7.8240  121.7660 C.3   237  HIS237      0.0745
    186  CG        44.5100    7.4580  121.1170 C.ar  237  HIS237      0.0817
    187  ND1       43.4800    8.3800  120.9890 N.ar  237  HIS237     -0.2268
    188  CD2       44.0630    6.2990  120.5730 C.ar  237  HIS237      0.1154
    189  CE1       42.4690    7.7800  120.3920 C.ar  237  HIS237      0.1986
    190  NE2       42.8000    6.5380  120.1370 N.ar  237  HIS237     -0.2212
@<TRIPOS>BOND
     1   101   102    1
     2    92    91    1
     3    92    93    2
     4    91    90    1
     5    91    94    1
     6    46    47    1
     7    46    49    1
     8    46    45    1
     9   103   102    1
    10   103   104    2
    11    47    48    2
    12   102   105    1
    13    49    50    1
    14    94    95    1
    15    56    57    1
    16    59    58    2
    17    58    57    1
    18    57    60    1
    19    65    64    2
    20   105   106    1
    21   105   107    1
    22    62    63    1
    23    50    52   ar
    24    50    51   ar
    25   106   108    1
    26    95    96   ar
    27    95    97   ar
    28    52    54   ar
    29    51    53   ar
    30    64    63    1
    31   109   110    1
    32    96    98   ar
    33    60    61    1
    34    97    99   ar
    35    63    66    1
    36   112   111    2
    37   110   111    1
    38   110   113    1
    39    66    68    1
    40    66    67    1
    41    54    55   ar
    42    53    55   ar
    43   116   114    1
    44   183   184    2
    45   183   182    1
    46    98   100   ar
    47    99   100   ar
    48   114   113    1
    49   114   115    1
    50   190   189   ar
    51   190   188   ar
    52    69    67    1
    53   128   127    1
    54   126   127   ar
    55   126   124   ar
    56   189   187   ar
    57   188   186   ar
    58   127   125   ar
    59    70    71    1
    60   124   122   ar
    61   117   118    1
    62   182   181    1
    63   182   185    1
    64    73    72    2
    65   187   186   ar
    66   186   185    1
    67   125   123   ar
    68   122   123   ar
    69   122   121    1
    70    77    75    1
    71    72    71    1
    72    71    74    1
    73   121   118    1
    74   118   119    1
    75    74    75    1
    76   120   119    2
    77    75    76    1
    78   119   129   am
    79    85    87   ar
    80    85    83   ar
    81    87    88   ar
    82   148   147    1
    83    82    83    1
    84    82    79    1
    85    83    84   ar
    86   146   145    1
    87   146   147    1
    88    88    89    1
    89    88    86   ar
    90   129   130    1
    91   163   164    1
    92   163   162    1
    93   145   142    1
    94   175   174    1
    95   175   176    2
    96   140   139    1
    97    84    86   ar
    98    78    79    1
    99   130   131    1
   100   130   133    1
   101   139   137   ar
   102   139   138   ar
   103   141   142    1
   104   141   131   am
   105    79    80    1
   106    44    42    1
   107   137   135   ar
   108   174   177    1
   109   174   173    1
   110   138   136   ar
   111     6     5    1
   112   179   177    1
   113    81    80    2
   114   135   134   ar
   115   136   134   ar
   116   161   162    1
   117   161   158    1
   118   142   143    1
   119   131   132    2
   120   134   133    1
   121    43    42    1
   122   177   178    1
   123   178   180    1
   124     7     5    1
   125    42    41    1
   126    29    27    1
   127   160   159    2
   128   158   159    1
   129   158   157    1
   130     5     2    1
   131   172   170    1
   132   143   144    2
   133     1     2    1
   134    28    26    1
   135   155   154    2
   136    26    27    1
   137    26    23    1
   138    41    38    1
   139     2     3    1
   140   171   169    1
   141   169   170    1
   142   169   166    1
   143   154   153    1
   144   154   156   am
   145   153   150    1
   146   150   149    1
   147   150   151    1
   148    31    30    1
   149    31    32    1
   150    31    34    1
   151    37    38    1
   152    37    32   am
   153    30    24    2
   154   166   165    1
   155   166   167    1
   156    38    39    1
   157    23    24    1
   158    23    22    1
   159    20    21   ar
   160    20    18   ar
   161     3     4    2
   162    24    25    1
   163    32    33    2
   164    21    19   ar
   165    34    36    1
   166    34    35    1
   167   151   152    2
   168    25    36    1
   169   167   168    2
   170    18    15   ar
   171    39    40    2
   172    19    17   ar
   173    15    17   ar
   174    15    13   ar
   175    17    16   ar
   176    11    10    2
   177    13    12    1
   178    13    14   ar
   179    10     9    1
   180    16    14   ar
   181    12     9    1
   182     8     9    1
