@<TRIPOS>MOLECULE
tmp/2hwhB00.pdb
 125 121 0 0 0
SMALL
GASTEIGER

@<TRIPOS>ATOM
      1  N         -8.2310   37.7420  -26.2440 N.3   414  LEU414     -0.1245
      2  CA        -8.9820   37.2260  -27.3730 C.3   414  LEU414      0.1561
      3  C        -10.4630   37.5370  -27.2370 C.2   414  LEU414      0.2260
      4  O        -11.1130   38.0150  -28.1730 O.2   414  LEU414     -0.2867
      5  CB        -8.7960   35.7060  -27.4600 C.3   414  LEU414      0.0270
      6  CG        -9.7210   34.9390  -28.4150 C.3   414  LEU414      0.0019
      7  CD1       -9.4660   35.3850  -29.8490 C.3   414  LEU414      0.0001
      8  CD2       -9.4770   33.4430  -28.2690 C.3   414  LEU414      0.0001
      9  N        -11.3960   41.5880  -27.2920 N.3   417  ARG417     -0.1231
     10  CA       -11.3920   42.1450  -28.6480 C.3   417  ARG417      0.1694
     11  C        -12.4710   41.5500  -29.5540 C.2   417  ARG417      0.2591
     12  O        -13.2270   42.2790  -30.1960 O.2   417  ARG417     -0.2718
     13  CB       -10.0250   41.9200  -29.3020 C.3   417  ARG417      0.0321
     14  CG        -8.8550   42.4790  -28.5080 C.3   417  ARG417      0.0489
     15  CD        -7.5300   41.8940  -28.9840 C.3   417  ARG417      0.2205
     16  NE        -7.1060   42.4220  -30.2740 N.pl3 417  ARG417     -0.0865
     17  CZ        -6.1730   41.8550  -31.0270 C.cat 417  ARG417      0.5346
     18  NH1       -5.5850   40.7450  -30.6140 N.pl3 417  ARG417      0.1354
     19  NH2       -5.8200   42.3910  -32.1850 N.pl3 417  ARG417      0.1354
     20  N        -12.5300   40.2240  -29.5930 N.am  418  MET418     -0.1979
     21  CA       -13.4850   39.4950  -30.4210 C.3   418  MET418      0.1605
     22  C        -14.9570   39.7910  -30.1380 C.2   418  MET418      0.2287
     23  O        -15.7350   40.0300  -31.0620 O.2   418  MET418     -0.2864
     24  CB       -13.2380   37.9850  -30.2740 C.3   418  MET418      0.0413
     25  CG       -14.2060   37.0860  -31.0550 C.3   418  MET418      0.0598
     26  SD       -13.7940   35.3240  -30.9610 S.3   418  MET418     -0.1393
     27  CE       -14.8660   34.7390  -29.6370 C.3   418  MET418      0.0692
     28  N         -2.0940   41.1280  -31.4630 N.3   469  LEU469     -0.1231
     29  CA        -1.7970   39.8470  -30.8530 C.3   469  LEU469      0.1693
     30  C         -2.5650   38.7500  -31.5800 C.2   469  LEU469      0.2592
     31  O         -3.6710   38.9770  -32.0770 O.2   469  LEU469     -0.2718
     32  CB        -2.1640   39.8550  -29.3620 C.3   469  LEU469      0.0284
     33  CG        -1.3480   40.7730  -28.4420 C.3   469  LEU469      0.0019
     34  CD1       -1.7610   40.5530  -26.9960 C.3   469  LEU469      0.0001
     35  CD2        0.1430   40.4970  -28.6150 C.3   469  LEU469      0.0001
     36  N         -1.9700   37.5580  -31.6330 N.am  470  HIS470     -0.1962
     37  CA        -2.5670   36.4010  -32.3110 C.3   470  HIS470      0.1787
     38  C         -1.9140   35.0950  -31.8280 C.2   470  HIS470      0.2621
     39  O         -0.9210   35.1210  -31.0980 O.2   470  HIS470     -0.2715
     40  CB        -2.3870   36.5500  -33.8270 C.3   470  HIS470      0.0785
     41  CG        -0.9710   36.3740  -34.2840 C.ar  470  HIS470      0.0821
     42  ND1       -0.3990   35.1340  -34.4690 N.ar  470  HIS470     -0.2267
     43  CD2        0.0000   37.2810  -34.5520 C.ar  470  HIS470      0.1154
     44  CE1        0.8640   35.2840  -34.8290 C.ar  470  HIS470      0.1986
     45  NE2        1.1300   36.5770  -34.8860 N.ar  470  HIS470     -0.2212
     46  N         -2.4730   33.9610  -32.2480 N.am  471  SER471     -0.1936
     47  CA        -1.9740   32.6430  -31.8410 C.3   471  SER471      0.2055
     48  C         -1.8670   32.5910  -30.3170 C.2   471  SER471      0.2643
     49  O         -0.7690   32.5360  -29.7440 O.2   471  SER471     -0.2714
     50  CB        -0.6040   32.3600  -32.4650 C.3   471  SER471      0.2130
     51  OG        -0.6490   32.4700  -33.8770 O.3   471  SER471     -0.2179
     52  N         -3.0260   32.6350  -29.6690 N.am  472  TYR472     -0.1973
     53  CA        -3.0850   32.5970  -28.2200 C.3   472  TYR472      0.1639
     54  C         -2.7450   31.1830  -27.7520 C.2   472  TYR472      0.2290
     55  O         -2.6050   30.2700  -28.5670 O.2   472  TYR472     -0.2864
     56  CB        -4.4760   33.0520  -27.7320 C.3   472  TYR472      0.0560
     57  CG        -4.7480   34.5470  -27.9410 C.ar  472  TYR472     -0.0198
     58  CD1       -5.1150   35.0480  -29.1890 C.ar  472  TYR472     -0.0009
     59  CD2       -4.6110   35.4570  -26.8920 C.ar  472  TYR472     -0.0009
     60  CE1       -5.3400   36.4140  -29.3850 C.ar  472  TYR472      0.0417
     61  CE2       -4.8320   36.8230  -27.0790 C.ar  472  TYR472      0.0417
     62  CZ        -5.1990   37.2980  -28.3270 C.ar  472  TYR472      0.1957
     63  OH        -5.4350   38.6500  -28.5150 O.3   472  TYR472     -0.2866
     64  N         -7.3030   29.3610  -25.3640 N.3   477  ILE477     -0.1245
     65  CA        -8.2540   29.1120  -26.4500 C.3   477  ILE477      0.1561
     66  C         -9.3810   28.1750  -26.0200 C.2   477  ILE477      0.2260
     67  O        -10.5530   28.4220  -26.3090 O.2   477  ILE477     -0.2867
     68  CB        -7.5570   28.4980  -27.6920 C.3   477  ILE477      0.0252
     69  CG1       -6.5950   29.5140  -28.3120 C.3   477  ILE477      0.0019
     70  CG2       -8.5980   28.0760  -28.7230 C.3   477  ILE477      0.0019
     71  CD1       -5.6990   28.9240  -29.3890 C.3   477  ILE477      0.0001
     72  N        -13.4070   29.1690  -25.7260 N.3   481  ALA481     -0.1245
     73  CA       -14.2960   28.3440  -26.5300 C.3   481  ALA481      0.1562
     74  C        -15.3080   27.6540  -25.6210 C.2   481  ALA481      0.2260
     75  O        -16.5020   27.6370  -25.9160 O.2   481  ALA481     -0.2867
     76  CB       -13.4820   27.3050  -27.3040 C.3   481  ALA481      0.0290
     77  N        -19.7150   31.8740  -32.4630 N.3   491  PRO491     -0.2102
     78  CA       -18.3050   31.5590  -32.7260 C.3   491  PRO491      0.1504
     79  C        -17.5330   32.7010  -33.4000 C.2   491  PRO491      0.2575
     80  O        -18.1230   33.6260  -33.9660 O.2   491  PRO491     -0.2718
     81  CB       -18.3960   30.3250  -33.6160 C.3   491  PRO491      0.0282
     82  CG       -19.6390   30.6050  -34.4070 C.3   491  PRO491      0.0208
     83  CD       -20.5980   31.0770  -33.3340 C.3   491  PRO491      0.0893
     84  N        -16.2080   32.6150  -33.3440 N.am  492  LEU492     -0.1980
     85  CA       -15.3230   33.6210  -33.9320 C.3   492  LEU492      0.1596
     86  C        -15.7380   34.0760  -35.3280 C.2   492  LEU492      0.2287
     87  O        -15.7420   35.2780  -35.6250 O.2   492  LEU492     -0.2864
     88  CB       -13.8880   33.0890  -33.9910 C.3   492  LEU492      0.0297
     89  CG       -12.9010   33.8690  -34.8720 C.3   492  LEU492      0.0022
     90  CD1      -12.8580   35.3420  -34.4760 C.3   492  LEU492      0.0001
     91  CD2      -11.5190   33.2310  -34.7500 C.3   492  LEU492      0.0001
     92  N        -16.0530   37.8770  -36.3560 N.3   496  ARG496     -0.1245
     93  CA       -15.1470   38.4060  -37.3660 C.3   496  ARG496      0.1563
     94  C        -16.0140   39.1190  -38.3990 C.2   496  ARG496      0.2260
     95  O        -15.7130   40.2380  -38.8240 O.2   496  ARG496     -0.2867
     96  CB       -14.3700   37.2630  -38.0300 C.3   496  ARG496      0.0307
     97  CG       -13.3050   37.7050  -39.0220 C.3   496  ARG496      0.0489
     98  CD       -12.7990   36.5160  -39.8330 C.3   496  ARG496      0.2205
     99  NE       -12.2650   35.4320  -39.0140 N.pl3 496  ARG496     -0.0865
    100  CZ       -11.0570   35.4240  -38.4570 C.cat 496  ARG496      0.5346
    101  NH1      -10.2290   36.4490  -38.6200 N.pl3 496  ARG496      0.1354
    102  NH2      -10.6720   34.3770  -37.7380 N.pl3 496  ARG496      0.1354
    103  N         -7.8180   43.0570  -36.4330 N.3   523  TRP523     -0.1241
    104  CA        -7.7140   41.6020  -36.3940 C.3   523  TRP523      0.1605
    105  C         -8.7660   40.9440  -37.2770 C.2   523  TRP523      0.2264
    106  O         -8.6680   39.7570  -37.5850 O.2   523  TRP523     -0.2867
    107  CB        -7.9020   41.0720  -34.9670 C.3   523  TRP523      0.0550
    108  CG        -9.1680   41.5490  -34.3140 C.ar  523  TRP523      0.0003
    109  CD1       -9.3340   42.7130  -33.6240 C.ar  523  TRP523      0.0946
    110  CD2      -10.4640   40.9280  -34.3690 C.ar  523  TRP523      0.0152
    111  NE1      -10.6460   42.8630  -33.2510 N.ar  523  TRP523     -0.2442
    112  CE2      -11.3650   41.7810  -33.6960 C.ar  523  TRP523      0.0810
    113  CE3      -10.9520   39.7370  -34.9250 C.ar  523  TRP523      0.0012
    114  CZ2      -12.7280   41.4860  -33.5610 C.ar  523  TRP523      0.0191
    115  CZ3      -12.3050   39.4400  -34.7920 C.ar  523  TRP523      0.0001
    116  CH2      -13.1780   40.3150  -34.1170 C.ar  523  TRP523      0.0015
    117  N         -4.0730   42.9520  -42.9960 N.3   528  LYS528     -0.1245
    118  CA        -3.8130   43.8000  -41.8440 C.3   528  LYS528      0.1561
    119  C         -3.2860   45.1830  -42.2210 C.2   528  LYS528      0.2260
    120  O         -2.6870   45.3730  -43.2830 O.2   528  LYS528     -0.2867
    121  CB        -2.8130   43.1160  -40.9170 C.3   528  LYS528      0.0271
    122  CG        -3.0660   41.6380  -40.7240 C.3   528  LYS528      0.0035
    123  CD        -4.4630   41.3640  -40.1930 C.3   528  LYS528      0.0206
    124  CE        -4.6460   39.8740  -39.9340 C.3   528  LYS528      0.1093
    125  NZ        -6.0510   39.5150  -39.6010 N.3   528  LYS528     -0.1314
@<TRIPOS>BOND
     1   120   119    2
     2   117   118    1
     3   119   118    1
     4   118   121    1
     5   121   122    1
     6   122   123    1
     7   123   124    1
     8   124   125    1
     9    98    97    1
    10    98    99    1
    11    97    96    1
    12    99   100    2
    13    95    94    2
    14   101   100    1
    15   100   102    1
    16    94    93    1
    17    96    93    1
    18   106   105    2
    19    93    92    1
    20   105   104    1
    21   103   104    1
    22   104   107    1
    23    87    86    2
    24    86    85    1
    25   107   108    1
    26   113   115   ar
    27   113   110   ar
    28    45    44   ar
    29    45    43   ar
    30    89    91    1
    31    89    90    1
    32    89    88    1
    33    44    42   ar
    34   115   116   ar
    35    43    41   ar
    36    42    41   ar
    37    82    81    1
    38    82    83    1
    39   110   108   ar
    40   110   112   ar
    41   108   109   ar
    42    41    40    1
    43   116   114   ar
    44    88    85    1
    45    80    79    2
    46    85    84    1
    47    51    50    1
    48    40    37    1
    49   112   114   ar
    50   112   111   ar
    51   109   111   ar
    52    81    78    1
    53    79    84   am
    54    79    78    1
    55    83    77    1
    56    78    77    1
    57    50    47    1
    58    37    38    1
    59    37    36    1
    60    46    47    1
    61    46    38   am
    62    19    17    1
    63    31    30    2
    64    47    48    1
    65    38    39    2
    66    36    30   am
    67    30    29    1
    68    28    29    1
    69    23    22    2
    70    25    26    1
    71    25    24    1
    72    17    18    1
    73    17    16    2
    74    26    27    1
    75    29    32    1
    76    21    24    1
    77    21    22    1
    78    21    20    1
    79    48    49    2
    80    48    52   am
    81    16    15    1
    82    12    11    2
    83     7     6    1
    84    52    53    1
    85    20    11   am
    86    11    10    1
    87    71    69    1
    88    60    58   ar
    89    60    62   ar
    90    32    33    1
    91    13    10    1
    92    13    14    1
    93    58    57   ar
    94    15    14    1
    95    70    68    1
    96    10     9    1
    97    35    33    1
    98    55    54    2
    99    63    62    1
   100    33    34    1
   101     6     8    1
   102     6     5    1
   103    62    61   ar
   104    69    68    1
   105    53    54    1
   106    53    56    1
   107     4     3    2
   108    57    56    1
   109    57    59   ar
   110    68    65    1
   111     5     2    1
   112     2     3    1
   113     2     1    1
   114    76    73    1
   115    61    59   ar
   116    73    72    1
   117    73    74    1
   118    65    66    1
   119    65    64    1
   120    67    66    2
   121    75    74    2
