@<TRIPOS>MOLECULE
tmp/2hwiB00.pdb
 146 141 0 0 0
SMALL
GASTEIGER

@<TRIPOS>ATOM
      1  N         -8.3310   37.5320  -23.8220 N.3   414  LEU414     -0.1245
      2  CA        -9.1190   37.0570  -24.9520 C.3   414  LEU414      0.1561
      3  C        -10.6010   37.3920  -24.7970 C.2   414  LEU414      0.2260
      4  O        -11.2520   37.8300  -25.7480 O.2   414  LEU414     -0.2867
      5  CB        -8.9730   35.5420  -25.0910 C.3   414  LEU414      0.0270
      6  CG        -9.8670   34.8980  -26.1480 C.3   414  LEU414      0.0019
      7  CD1       -9.3120   35.1900  -27.5480 C.3   414  LEU414      0.0001
      8  CD2       -9.9130   33.3980  -25.9040 C.3   414  LEU414      0.0001
      9  N        -11.4640   41.3310  -25.0650 N.3   417  ARG417     -0.1231
     10  CA       -11.3820   41.8510  -26.4320 C.3   417  ARG417      0.1694
     11  C        -12.4770   41.3050  -27.3360 C.2   417  ARG417      0.2591
     12  O        -13.1630   42.0630  -28.0260 O.2   417  ARG417     -0.2718
     13  CB       -10.0250   41.5080  -27.0460 C.3   417  ARG417      0.0321
     14  CG        -8.8440   42.0850  -26.2970 C.3   417  ARG417      0.0489
     15  CD        -7.5210   41.4900  -26.7880 C.3   417  ARG417      0.2205
     16  NE        -7.2030   41.8570  -28.1660 N.pl3 417  ARG417     -0.0865
     17  CZ        -6.2820   41.2370  -28.8990 C.cat 417  ARG417      0.5346
     18  NH1       -5.6050   40.2200  -28.3820 N.pl3 417  ARG417      0.1354
     19  NH2       -6.0250   41.6360  -30.1380 N.pl3 417  ARG417      0.1354
     20  N        -12.6390   39.9840  -27.3270 N.am  418  MET418     -0.1979
     21  CA       -13.6280   39.3350  -28.1740 C.3   418  MET418      0.1605
     22  C        -15.0710   39.6310  -27.7900 C.2   418  MET418      0.2287
     23  O        -15.9180   39.8520  -28.6550 O.2   418  MET418     -0.2864
     24  CB       -13.4110   37.8200  -28.1490 C.3   418  MET418      0.0413
     25  CG       -14.4020   37.0330  -28.9900 C.3   418  MET418      0.0598
     26  SD       -14.0980   35.2500  -28.9140 S.3   418  MET418     -0.1393
     27  CE       -15.1370   34.8010  -27.5750 C.3   418  MET418      0.0692
     28  N         -2.6370   43.1750  -30.1670 N.3   468  SER468     -0.1202
     29  CA        -2.3130   42.1060  -31.1040 C.3   468  SER468      0.2020
     30  C         -1.9730   40.7600  -30.4700 C.2   468  SER468      0.2619
     31  O         -1.3910   39.9020  -31.1300 O.2   468  SER468     -0.2717
     32  CB        -1.1600   42.5440  -32.0120 C.3   468  SER468      0.2103
     33  OG         0.0010   42.8510  -31.2590 O.3   468  SER468     -0.2182
     34  N         -2.3370   40.5580  -29.2060 N.am  469  LEU469     -0.1965
     35  CA        -2.0360   39.2840  -28.5560 C.3   469  LEU469      0.1728
     36  C         -2.7550   38.1150  -29.2240 C.2   469  LEU469      0.2616
     37  O         -3.9000   38.2370  -29.6670 O.2   469  LEU469     -0.2715
     38  CB        -2.4030   39.3200  -27.0680 C.3   469  LEU469      0.0311
     39  CG        -1.6050   40.2790  -26.1820 C.3   469  LEU469      0.0022
     40  CD1       -1.8550   39.9380  -24.7230 C.3   469  LEU469      0.0001
     41  CD2       -0.1130   40.1580  -26.5070 C.3   469  LEU469      0.0001
     42  N         -2.0660   36.9800  -29.2950 N.am  470  HIS470     -0.1959
     43  CA        -2.6210   35.7780  -29.9060 C.3   470  HIS470      0.1787
     44  C         -1.9600   34.5390  -29.3150 C.2   470  HIS470      0.2621
     45  O         -0.9850   34.6330  -28.5680 O.2   470  HIS470     -0.2715
     46  CB        -2.4090   35.8170  -31.4270 C.3   470  HIS470      0.0785
     47  CG        -0.9710   35.7420  -31.8370 C.ar  470  HIS470      0.0821
     48  ND1       -0.3050   34.5440  -31.9930 N.ar  470  HIS470     -0.2267
     49  CD2       -0.0590   36.7130  -32.0700 C.ar  470  HIS470      0.1154
     50  CE1        0.9570   34.7830  -32.3010 C.ar  470  HIS470      0.1986
     51  NE2        1.1350   36.0910  -32.3530 N.ar  470  HIS470     -0.2212
     52  N         -2.5070   33.3780  -29.6460 N.am  471  SER471     -0.1936
     53  CA        -1.9770   32.1190  -29.1520 C.3   471  SER471      0.2055
     54  C         -1.9510   32.1010  -27.6240 C.2   471  SER471      0.2643
     55  O         -0.8930   31.9770  -27.0040 O.2   471  SER471     -0.2714
     56  CB        -0.5680   31.9020  -29.7110 C.3   471  SER471      0.2130
     57  OG        -0.5830   32.0010  -31.1290 O.3   471  SER471     -0.2179
     58  N         -3.1320   32.2320  -27.0270 N.am  472  TYR472     -0.1973
     59  CA        -3.2730   32.2190  -25.5820 C.3   472  TYR472      0.1639
     60  C         -3.0140   30.8090  -25.0660 C.2   472  TYR472      0.2290
     61  O         -3.1000   29.8490  -25.8270 O.2   472  TYR472     -0.2864
     62  CB        -4.6760   32.6790  -25.1830 C.3   472  TYR472      0.0560
     63  CG        -4.9470   34.1430  -25.4710 C.ar  472  TYR472     -0.0198
     64  CD1       -5.4590   34.5560  -26.6970 C.ar  472  TYR472     -0.0009
     65  CD2       -4.6890   35.1110  -24.5070 C.ar  472  TYR472     -0.0009
     66  CE1       -5.7100   35.9020  -26.9490 C.ar  472  TYR472      0.0417
     67  CE2       -4.9320   36.4440  -24.7480 C.ar  472  TYR472      0.0417
     68  CZ        -5.4450   36.8370  -25.9640 C.ar  472  TYR472      0.1957
     69  OH        -5.7050   38.1690  -26.1770 O.3   472  TYR472     -0.2866
     70  N         -7.5150   29.2310  -22.6270 N.3   477  ILE477     -0.1245
     71  CA        -8.4910   28.9330  -23.6660 C.3   477  ILE477      0.1561
     72  C         -9.6140   28.0430  -23.1320 C.2   477  ILE477      0.2260
     73  O        -10.7940   28.3060  -23.3770 O.2   477  ILE477     -0.2867
     74  CB        -7.8120   28.2620  -24.8830 C.3   477  ILE477      0.0252
     75  CG1       -6.9400   29.2940  -25.6020 C.3   477  ILE477      0.0019
     76  CG2       -8.8650   27.6790  -25.8260 C.3   477  ILE477      0.0019
     77  CD1       -6.1030   28.7410  -26.7290 C.3   477  ILE477      0.0001
     78  N        -11.9890   30.0010  -20.6260 N.3   480  VAL480     -0.1231
     79  CA       -12.8900   30.8640  -21.3720 C.3   480  VAL480      0.1692
     80  C        -13.9590   30.0300  -22.0900 C.2   480  VAL480      0.2591
     81  O        -15.1500   30.3320  -22.0020 O.2   480  VAL480     -0.2718
     82  CB       -12.1230   31.7000  -22.4100 C.3   480  VAL480      0.0266
     83  CG1      -13.1080   32.5070  -23.2460 C.3   480  VAL480      0.0020
     84  CG2      -11.1400   32.6380  -21.6990 C.3   480  VAL480      0.0020
     85  N        -13.5300   28.9760  -22.7850 N.am  481  ALA481     -0.1980
     86  CA       -14.4490   28.0970  -23.5090 C.3   481  ALA481      0.1597
     87  C        -15.5170   27.5350  -22.5750 C.2   481  ALA481      0.2287
     88  O        -16.7060   27.5220  -22.9060 O.2   481  ALA481     -0.2864
     89  CB       -13.6710   26.9540  -24.1670 C.3   481  ALA481      0.0319
     90  N        -18.0880   30.1770  -21.6590 N.3   484  LEU484     -0.1245
     91  CA       -19.0220   30.4420  -22.7500 C.3   484  LEU484      0.1561
     92  C        -20.0890   29.3580  -22.8860 C.2   484  LEU484      0.2260
     93  O        -21.2120   29.6430  -23.2950 O.2   484  LEU484     -0.2867
     94  CB       -18.2730   30.5930  -24.0720 C.3   484  LEU484      0.0270
     95  CG       -17.1410   31.6250  -24.0570 C.3   484  LEU484      0.0019
     96  CD1      -16.6730   31.8770  -25.4710 C.3   484  LEU484      0.0001
     97  CD2      -17.6200   32.9180  -23.4240 C.3   484  LEU484      0.0001
     98  N        -19.9410   31.7950  -30.0500 N.3   491  PRO491     -0.2102
     99  CA       -18.5230   31.5180  -30.3260 C.3   491  PRO491      0.1504
    100  C        -17.7720   32.6290  -31.0710 C.2   491  PRO491      0.2575
    101  O        -18.3710   33.6050  -31.5190 O.2   491  PRO491     -0.2718
    102  CB       -18.5820   30.2140  -31.1200 C.3   491  PRO491      0.0282
    103  CG       -19.8520   30.3740  -31.9000 C.3   491  PRO491      0.0208
    104  CD       -20.8160   30.9380  -30.8740 C.3   491  PRO491      0.0893
    105  N        -16.4570   32.4610  -31.2020 N.am  492  LEU492     -0.1980
    106  CA       -15.6040   33.4330  -31.8730 C.3   492  LEU492      0.1596
    107  C        -16.1110   33.8610  -33.2400 C.2   492  LEU492      0.2287
    108  O        -16.1400   35.0510  -33.5530 O.2   492  LEU492     -0.2864
    109  CB       -14.1790   32.8870  -32.0190 C.3   492  LEU492      0.0297
    110  CG       -13.2060   33.7600  -32.8290 C.3   492  LEU492      0.0022
    111  CD1      -13.0160   35.1010  -32.1370 C.3   492  LEU492      0.0001
    112  CD2      -11.8670   33.0530  -32.9740 C.3   492  LEU492      0.0001
    113  N        -16.4370   37.7300  -34.1120 N.3   496  ARG496     -0.1245
    114  CA       -15.5560   38.2560  -35.1530 C.3   496  ARG496      0.1563
    115  C        -16.4170   38.9630  -36.1980 C.2   496  ARG496      0.2260
    116  O        -16.1190   40.0830  -36.6150 O.2   496  ARG496     -0.2867
    117  CB       -14.7510   37.1220  -35.8080 C.3   496  ARG496      0.0307
    118  CG       -13.6360   37.6120  -36.7400 C.3   496  ARG496      0.0489
    119  CD       -12.9300   36.4660  -37.4750 C.3   496  ARG496      0.2205
    120  NE       -12.1020   35.6250  -36.6100 N.pl3 496  ARG496     -0.0865
    121  CZ       -11.0020   36.0360  -35.9860 C.cat 496  ARG496      0.5346
    122  NH1      -10.5830   37.2840  -36.1180 N.pl3 496  ARG496      0.1354
    123  NH2      -10.3080   35.1910  -35.2380 N.pl3 496  ARG496      0.1354
    124  N         -8.0310   42.6160  -34.3030 N.3   523  TRP523     -0.1241
    125  CA        -8.0490   41.1540  -34.2650 C.3   523  TRP523      0.1605
    126  C         -9.1420   40.5490  -35.1380 C.2   523  TRP523      0.2264
    127  O         -9.0490   39.3890  -35.5410 O.2   523  TRP523     -0.2867
    128  CB        -8.2450   40.6370  -32.8280 C.3   523  TRP523      0.0550
    129  CG        -9.4970   41.1580  -32.1460 C.ar  523  TRP523      0.0003
    130  CD1       -9.6000   42.2880  -31.3830 C.ar  523  TRP523      0.0946
    131  CD2      -10.8190   40.6030  -32.2150 C.ar  523  TRP523      0.0152
    132  NE1      -10.8950   42.4690  -30.9770 N.ar  523  TRP523     -0.2442
    133  CE2      -11.6650   41.4490  -31.4710 C.ar  523  TRP523      0.0810
    134  CE3      -11.3710   39.4750  -32.8340 C.ar  523  TRP523      0.0012
    135  CZ2      -13.0360   41.2060  -31.3290 C.ar  523  TRP523      0.0191
    136  CZ3      -12.7390   39.2360  -32.6890 C.ar  523  TRP523      0.0001
    137  CH2      -13.5490   40.0970  -31.9430 C.ar  523  TRP523      0.0015
    138  N         -4.4390   42.4090  -40.8010 N.3   528  LYS528     -0.1245
    139  CA        -4.1640   43.3030  -39.6780 C.3   528  LYS528      0.1561
    140  C         -3.5000   44.5870  -40.1800 C.2   528  LYS528      0.2260
    141  O         -2.7600   44.5620  -41.1640 O.2   528  LYS528     -0.2867
    142  CB        -3.2250   42.6150  -38.6840 C.3   528  LYS528      0.0271
    143  CG        -3.5420   41.1520  -38.4110 C.3   528  LYS528      0.0035
    144  CD        -4.7320   40.9680  -37.4860 C.3   528  LYS528      0.0206
    145  CE        -4.8600   39.5020  -37.0950 C.3   528  LYS528      0.1093
    146  NZ        -5.9340   39.2330  -36.0980 N.3   528  LYS528     -0.1314
@<TRIPOS>BOND
     1   141   140    2
     2   138   139    1
     3   140   139    1
     4   139   142    1
     5   142   143    1
     6   143   144    1
     7   144   145    1
     8   119   118    1
     9   119   120    1
    10   145   146    1
    11   118   117    1
    12   116   115    2
    13   120   121    2
    14   115   114    1
    15   122   121    1
    16   121   123    1
    17   117   114    1
    18   127   126    2
    19   114   113    1
    20   126   125    1
    21   124   125    1
    22   125   128    1
    23   108   107    2
    24   107   106    1
    25   112   110    1
    26   134   136   ar
    27   134   131   ar
    28   110   111    1
    29   110   109    1
    30   128   129    1
    31   136   137   ar
    32    51    50   ar
    33    51    49   ar
    34    50    48   ar
    35   131   129   ar
    36   131   133   ar
    37   129   130   ar
    38    49    47   ar
    39   109   106    1
    40    32    33    1
    41    32    29    1
    42    48    47   ar
    43   137   135   ar
    44   103   102    1
    45   103   104    1
    46   106   105    1
    47    47    46    1
    48   101   100    2
    49   133   135   ar
    50   133   132   ar
    51    46    43    1
    52   130   132   ar
    53   105   100   am
    54    31    30    2
    55    57    56    1
    56   102    99    1
    57    29    30    1
    58    29    28    1
    59   100    99    1
    60   104    98    1
    61    30    34   am
    62    99    98    1
    63    19    17    1
    64    43    44    1
    65    43    42    1
    66    56    53    1
    67    37    36    2
    68    52    44   am
    69    52    53    1
    70    44    45    2
    71    42    36   am
    72    36    35    1
    73    34    35    1
    74    53    54    1
    75    25    26    1
    76    25    24    1
    77    26    27    1
    78    17    18    1
    79    17    16    2
    80    23    22    2
    81    35    38    1
    82    21    24    1
    83    21    22    1
    84    21    20    1
    85    16    15    1
    86    12    11    2
    87    54    58   am
    88    54    55    2
    89     7     6    1
    90    11    20   am
    91    11    10    1
    92    38    39    1
    93    13    10    1
    94    13    14    1
    95    58    59    1
    96    66    64   ar
    97    66    68   ar
    98    15    14    1
    99    77    75    1
   100    64    63   ar
   101    41    39    1
   102    10     9    1
   103    39    40    1
   104    69    68    1
   105     6     8    1
   106     6     5    1
   107    68    67   ar
   108    61    60    2
   109    76    74    1
   110     4     3    2
   111    75    74    1
   112    59    62    1
   113    59    60    1
   114    96    95    1
   115    63    62    1
   116    63    65   ar
   117     5     2    1
   118     2     3    1
   119     2     1    1
   120    74    71    1
   121    67    65   ar
   122    89    86    1
   123    94    95    1
   124    94    91    1
   125    95    97    1
   126    71    72    1
   127    71    70    1
   128    86    85    1
   129    86    87    1
   130    73    72    2
   131    93    92    2
   132    83    82    1
   133    88    87    2
   134    92    91    1
   135    85    80   am
   136    91    90    1
   137    82    84    1
   138    82    79    1
   139    80    81    2
   140    80    79    1
   141    79    78    1
