@<TRIPOS>MOLECULE
tmp/2hwpB00.pdb
 141 131 0 0 0
SMALL
GASTEIGER

@<TRIPOS>ATOM
      1  N         11.7950  -13.1210   -8.4820 N.3    16  LEU16      -0.1245
      2  CA        11.7310  -12.6700   -7.1010 C.3    16  LEU16       0.1561
      3  C         10.4840  -13.1710   -6.3780 C.2    16  LEU16       0.2260
      4  O         10.5370  -13.5140   -5.1970 O.2    16  LEU16      -0.2867
      5  CB        11.7830  -11.1450   -7.0380 C.3    16  LEU16       0.0270
      6  CG        12.9760  -10.4050   -7.6390 C.3    16  LEU16       0.0019
      7  CD1       12.5710   -8.9640   -7.9330 C.3    16  LEU16       0.0001
      8  CD2       14.1930  -10.4540   -6.7260 C.3    16  LEU16       0.0001
      9  N          7.2520  -11.8600  -10.6440 N.3    21  VAL21      -0.1245
     10  CA         8.0150  -10.6200  -10.5650 C.3    21  VAL21       0.1561
     11  C          9.5130  -10.8930  -10.6930 C.2    21  VAL21       0.2260
     12  O         10.0740  -11.6710   -9.9230 O.2    21  VAL21      -0.2867
     13  CB         7.7950   -9.9240   -9.2160 C.3    21  VAL21       0.0252
     14  CG1        8.6200   -8.6460   -9.1510 C.3    21  VAL21       0.0019
     15  CG2        6.3130   -9.6480   -8.9770 C.3    21  VAL21       0.0019
     16  N         12.6770   -3.7870  -12.7760 N.3    33  ALA33      -0.1231
     17  CA        11.7680   -4.7520  -12.2050 C.3    33  ALA33       0.1694
     18  C         10.7710   -5.0560  -13.2890 C.2    33  ALA33       0.2592
     19  O         10.2670   -4.1470  -13.9490 O.2    33  ALA33      -0.2718
     20  CB        11.0580   -4.1820  -11.0090 C.3    33  ALA33       0.0304
     21  N         10.4890   -6.3370  -13.4780 N.am   34  ILE34      -0.1966
     22  CA         9.5840   -6.7610  -14.5310 C.3    34  ILE34       0.1727
     23  C          8.4940   -7.5970  -13.9070 C.2    34  ILE34       0.2616
     24  O          8.7850   -8.5150  -13.1370 O.2    34  ILE34      -0.2715
     25  CB        10.3250   -7.5890  -15.5990 C.3    34  ILE34       0.0290
     26  CG1       11.4800   -6.7810  -16.1780 C.3    34  ILE34       0.0022
     27  CG2        9.3770   -8.0320  -16.7040 C.3    34  ILE34       0.0023
     28  CD1       12.5980   -7.6470  -16.7500 C.3    34  ILE34       0.0001
     29  N          7.2470   -7.2650  -14.2140 N.am   35  LYS35      -0.1977
     30  CA         6.1310   -8.0590  -13.7350 C.3    35  LYS35       0.1596
     31  C          5.3670   -8.6540  -14.9120 C.2    35  LYS35       0.2287
     32  O          5.1280   -7.9730  -15.9110 O.2    35  LYS35      -0.2864
     33  CB         5.1920   -7.2170  -12.8450 C.3    35  LYS35       0.0298
     34  CG         4.1260   -7.9730  -12.0640 C.3    35  LYS35       0.0038
     35  CD         3.4810   -6.9810  -11.1250 C.3    35  LYS35       0.0206
     36  CE         2.1620   -7.3940  -10.5180 C.3    35  LYS35       0.1093
     37  NZ         2.2630   -8.8110  -10.0870 N.3    35  LYS35      -0.1314
     38  N         -0.1110    4.6470  -13.9080 N.3    40  MET40      -0.1245
     39  CA         1.3060    4.8080  -13.6460 C.3    40  MET40       0.1570
     40  C          1.9510    5.6520  -14.7380 C.2    40  MET40       0.2261
     41  O          3.0590    6.1620  -14.5680 O.2    40  MET40      -0.2867
     42  CB         1.9880    3.4430  -13.5400 C.3    40  MET40       0.0387
     43  CG         1.4310    2.5410  -12.4410 C.3    40  MET40       0.0595
     44  SD         2.4170    1.0370  -12.1960 S.3    40  MET40      -0.1393
     45  CE         3.8960    1.7190  -11.4260 C.3    40  MET40       0.0692
     46  N          5.1000   -5.5050  -17.6570 N.3    62  ILE62      -0.1245
     47  CA         5.1440   -4.1590  -17.0850 C.3    62  ILE62       0.1561
     48  C          6.5500   -3.9150  -16.5820 C.2    62  ILE62       0.2260
     49  O          7.0770   -4.7140  -15.8160 O.2    62  ILE62      -0.2867
     50  CB         4.1570   -4.0340  -15.9190 C.3    62  ILE62       0.0252
     51  CG1        2.7310   -4.1380  -16.4420 C.3    62  ILE62       0.0019
     52  CG2        4.3490   -2.7260  -15.1630 C.3    62  ILE62       0.0019
     53  CD1        1.8350   -4.9270  -15.5270 C.3    62  ILE62       0.0001
     54  N          9.3480   -1.5170  -14.6530 N.3    64  THR64      -0.1203
     55  CA         9.2920   -0.5320  -13.6070 C.3    64  THR64       0.1994
     56  C         10.6950   -0.2310  -13.1210 C.2    64  THR64       0.2618
     57  O         11.6310   -0.9420  -13.4770 O.2    64  THR64      -0.2717
     58  CB         8.4150   -1.1090  -12.5060 C.3    64  THR64       0.1784
     59  OG1        7.3010   -0.2510  -12.2850 O.3    64  THR64      -0.2211
     60  CG2        9.1770   -1.4260  -11.2470 C.3    64  THR64       0.0376
     61  N         10.8720    0.8180  -12.3260 N.am   65  GLU65      -0.1965
     62  CA        12.1990    1.0630  -11.7600 C.3    65  GLU65       0.1733
     63  C         12.5020   -0.0220  -10.7370 C.2    65  GLU65       0.2616
     64  O         11.6060   -0.5300  -10.0660 O.2    65  GLU65      -0.2715
     65  CB        12.3040    2.4410  -11.1210 C.3    65  GLU65       0.0429
     66  CG        11.7740    2.4940   -9.7040 C.3    65  GLU65       0.1163
     67  CD        11.9060    3.8660   -9.0980 C.2    65  GLU65       0.3649
     68  OE1       10.9030    4.6040   -9.0810 O.co2  65  GLU65      -0.2457
     69  OE2       13.0100    4.2160   -8.6490 O.co2  65  GLU65      -0.2457
     70  N         13.7670   -0.3810  -10.6190 N.am   66  TYR66      -0.1960
     71  CA        14.1440   -1.4810   -9.7700 C.3    66  TYR66       0.1771
     72  C         14.3760   -1.0500   -8.3180 C.2    66  TYR66       0.2619
     73  O         15.1590   -0.1340   -8.0620 O.2    66  TYR66      -0.2715
     74  CB        15.4070   -2.1390  -10.3130 C.3    66  TYR66       0.0574
     75  CG        15.7960   -3.3200   -9.4870 C.ar   66  TYR66      -0.0198
     76  CD1       14.9090   -4.3590   -9.3160 C.ar   66  TYR66      -0.0009
     77  CD2       17.0200   -3.3870   -8.8520 C.ar   66  TYR66      -0.0009
     78  CE1       15.2160   -5.4410   -8.5570 C.ar   66  TYR66       0.0417
     79  CE2       17.3470   -4.4860   -8.0760 C.ar   66  TYR66       0.0417
     80  CZ        16.4270   -5.5100   -7.9420 C.ar   66  TYR66       0.1957
     81  OH        16.6820   -6.6340   -7.1920 O.3    66  TYR66      -0.2866
     82  N         13.7350   -1.7360   -7.3710 N.am   67  MET67      -0.1977
     83  CA        13.9040   -1.4160   -5.9480 C.3    67  MET67       0.1605
     84  C         14.6280   -2.5330   -5.2230 C.2    67  MET67       0.2287
     85  O         14.0340   -3.5630   -4.8860 O.2    67  MET67      -0.2864
     86  CB        12.5580   -1.1240   -5.2650 C.3    67  MET67       0.0413
     87  CG        11.7390    0.0050   -5.9080 C.3    67  MET67       0.0598
     88  SD        12.5600    1.6120   -5.9110 S.3    67  MET67      -0.1393
     89  CE        12.6660    1.9730   -4.1620 C.3    67  MET67       0.0692
     90  N         13.3330   -4.8160   -2.0310 N.3    70  GLY70      -0.1210
     91  CA        12.0680   -5.5160   -2.0360 C.3    70  GLY70       0.1956
     92  C         11.0230   -4.7070   -1.3000 C.2    70  GLY70       0.2612
     93  O         11.2190   -3.5130   -1.0580 O.2    70  GLY70      -0.2717
     94  N          9.9080   -5.3510   -0.9690 N.am   71  CYS71      -0.1970
     95  CA         8.8320   -4.6910   -0.2760 C.3    71  CYS71       0.1712
     96  C          9.2490   -4.4210    1.1430 C.2    71  CYS71       0.2296
     97  O         10.0720   -5.1530    1.7070 O.2    71  CYS71      -0.2864
     98  CB         7.5380   -5.4970   -0.3200 C.3    71  CYS71       0.0983
     99  SG         7.6290   -6.9610    0.6440 S.3    71  CYS71      -0.0798
    100  N          7.6470   -4.5390    3.9360 N.3    73  LEU73      -0.1231
    101  CA         7.3010   -5.5930    4.8810 C.3    73  LEU73       0.1693
    102  C          8.4130   -6.6510    4.9900 C.2    73  LEU73       0.2592
    103  O          8.7630   -7.0470    6.0950 O.2    73  LEU73      -0.2718
    104  CB         5.9570   -6.2130    4.5030 C.3    73  LEU73       0.0284
    105  CG         5.5220   -7.4830    5.2290 C.3    73  LEU73       0.0019
    106  CD1        5.1340   -7.2100    6.6770 C.3    73  LEU73       0.0001
    107  CD2        4.3740   -8.1060    4.4410 C.3    73  LEU73       0.0001
    108  N          9.0120   -7.0710    3.8680 N.am   74  ASP74      -0.1974
    109  CA        10.1320   -8.0510    3.9320 C.3    74  ASP74       0.1709
    110  C         11.4060   -7.4280    4.4900 C.2    74  ASP74       0.2293
    111  O         12.1510   -8.0500    5.2530 O.2    74  ASP74      -0.2864
    112  CB        10.4200   -8.6760    2.5640 C.3    74  ASP74       0.1436
    113  CG         9.3130   -9.6170    2.1070 C.2    74  ASP74       0.3671
    114  OD1        8.5610  -10.0880    2.9870 O.co2  74  ASP74      -0.2456
    115  OD2        9.2010   -9.8950    0.8860 O.co2  74  ASP74      -0.2456
    116  N          3.4560   -4.0720    2.8180 N.3   116  ALA116     -0.1231
    117  CA         3.6780   -5.0080    1.7010 C.3   116  ALA116      0.1694
    118  C          3.6520   -4.2710    0.3700 C.2   116  ALA116      0.2592
    119  O          4.1370   -4.7720   -0.6490 O.2   116  ALA116     -0.2718
    120  CB         2.5980   -6.1440    1.6980 C.3   116  ALA116      0.0304
    121  N          3.0620   -3.0830    0.3850 N.am  117  ASN117     -0.1974
    122  CA         2.9230   -2.2820   -0.8220 C.3   117  ASN117      0.1688
    123  C          3.8340   -1.0610   -0.8810 C.2   117  ASN117      0.2292
    124  O          3.6480   -0.1950   -1.7320 O.2   117  ASN117     -0.2864
    125  CB         1.4530   -1.9050   -1.0210 C.3   117  ASN117      0.1181
    126  CG         0.6090   -3.1060   -1.4480 C.2   117  ASN117      0.2629
    127  OD1        1.1600   -4.0830   -1.9390 O.2   117  ASN117     -0.2716
    128  ND2       -0.7060   -3.0420   -1.2580 N.am  117  ASN117     -0.0877
    129  N          7.8640   -0.1990   -1.5400 N.3   119  LEU119     -0.1245
    130  CA         9.1600   -0.7520   -1.9520 C.3   119  LEU119      0.1561
    131  C         10.3610    0.0240   -1.4150 C.2   119  LEU119      0.2260
    132  O         10.3120    1.2420   -1.2340 O.2   119  LEU119     -0.2867
    133  CB         9.2490   -0.8160   -3.4590 C.3   119  LEU119      0.0270
    134  CG         8.2140   -1.7190   -4.1050 C.3   119  LEU119      0.0019
    135  CD1        8.2970   -1.5650   -5.5560 C.3   119  LEU119      0.0001
    136  CD2        8.4530   -3.1740   -3.7150 C.3   119  LEU119      0.0001
    137  N          3.8190    1.8930   -4.0690 N.3   129  ALA129     -0.1245
    138  CA         3.6030    1.0760   -5.2580 C.3   129  ALA129      0.1562
    139  C          2.1340    0.8420   -5.5230 C.2   129  ALA129      0.2260
    140  O          1.7150   -0.3230   -5.6750 O.2   129  ALA129     -0.2867
    141  CB         4.3050   -0.2650   -5.0940 C.3   129  ALA129      0.0290
@<TRIPOS>BOND
     1    46    47    1
     2    47    48    1
     3    47    50    1
     4    28    26    1
     5    27    25    1
     6    48    49    2
     7    51    50    1
     8    51    53    1
     9    26    25    1
    10    50    52    1
    11    32    31    2
    12    25    22    1
    13    31    30    1
    14    40    41    2
    15    40    39    1
    16    54    55    1
    17    22    23    1
    18    22    21    1
    19    29    23   am
    20    29    30    1
    21    19    18    2
    22    38    39    1
    23    23    24    2
    24    30    33    1
    25    39    42    1
    26    55    56    1
    27    55    58    1
    28    42    43    1
    29    21    18   am
    30    57    56    2
    31    18    17    1
    32    56    61   am
    33    33    34    1
    34    16    17    1
    35    58    59    1
    36    58    60    1
    37    43    44    1
    38    61    62    1
    39    17    20    1
    40    44    45    1
    41    34    35    1
    42    62    65    1
    43    62    63    1
    44    35    36    1
    45    65    66    1
    46    63    70   am
    47    63    64    2
    48    11    10    1
    49    11    12    2
    50     9    10    1
    51    70    71    1
    52    10    13    1
    53    36    37    1
    54    74    71    1
    55    74    75    1
    56    71    72    1
    57    66    67    1
    58    75    76   ar
    59    75    77   ar
    60    76    78   ar
    61    13    14    1
    62    13    15    1
    63    67    68   ar
    64    67    69   ar
    65    77    79   ar
    66    78    80   ar
    67     1     2    1
    68    72    73    2
    69    72    82   am
    70    79    80   ar
    71    80    81    1
    72     7     6    1
    73     6     5    1
    74     6     8    1
    75    82    83    1
    76     2     5    1
    77     2     3    1
    78     3     4    2
    79    83    86    1
    80    83    84    1
    81    88    87    1
    82    88    89    1
    83    87    86    1
    84   140   139    2
    85   135   134    1
    86   139   138    1
    87   138   141    1
    88   138   137    1
    89    84    85    2
    90   134   136    1
    91   134   133    1
    92   133   130    1
    93    91    90    1
    94    91    92    1
    95   130   129    1
    96   130   131    1
    97   127   126    2
    98   124   123    2
    99   126   128   am
   100   126   125    1
   101   131   132    2
   102    92    93    2
   103    92    94   am
   104   125   122    1
   105    94    95    1
   106   123   122    1
   107   122   121    1
   108   119   118    2
   109    98    95    1
   110    98    99    1
   111    95    96    1
   112   118   121   am
   113   118   117    1
   114   115   113   ar
   115    96    97    2
   116   120   117    1
   117   117   116    1
   118   113   112    1
   119   113   114   ar
   120   112   109    1
   121   108   109    1
   122   108   102   am
   123   109   110    1
   124   100   101    1
   125   107   105    1
   126   110   111    2
   127   104   101    1
   128   104   105    1
   129   101   102    1
   130   102   103    2
   131   105   106    1
