@<TRIPOS>MOLECULE
tmp/2hwuA00.pdb
 136 128 0 0 0
SMALL
GASTEIGER

@<TRIPOS>ATOM
      1  N         -1.0280   29.8170   52.9780 N.3    26  GLY26      -0.1225
      2  CA        -0.8200   29.6690   54.4180 C.3    26  GLY26       0.1811
      3  C         -0.7060   30.9890   55.1610 C.2    26  GLY26       0.2280
      4  O         -1.0830   31.0820   56.3290 O.2    26  GLY26      -0.2866
      5  N         -0.4600   28.4310   59.5940 N.3    69  ILE69      -0.1245
      6  CA         0.5320   27.3570   59.6070 C.3    69  ILE69       0.1561
      7  C          0.0040   26.1120   60.3180 C.2    69  ILE69       0.2260
      8  O         -0.4210   26.1710   61.4750 O.2    69  ILE69      -0.2867
      9  CB         1.8750   27.7980   60.2420 C.3    69  ILE69       0.0252
     10  CG1        2.4660   28.9920   59.4860 C.3    69  ILE69       0.0019
     11  CG2        2.8660   26.6430   60.2410 C.3    69  ILE69       0.0019
     12  CD1        3.6610   29.6410   60.1690 C.3    69  ILE69       0.0001
     13  N         -4.0200   24.4970   47.1830 N.3    91  ARG91      -0.1245
     14  CA        -3.0630   25.0920   48.1000 C.3    91  ARG91       0.1563
     15  C         -1.7990   25.5300   47.3720 C.2    91  ARG91       0.2260
     16  O         -1.2320   24.7820   46.5710 O.2    91  ARG91      -0.2867
     17  CB        -2.7250   24.1390   49.2470 C.3    91  ARG91       0.0307
     18  CG        -1.5620   24.6120   50.0960 C.3    91  ARG91       0.0489
     19  CD        -1.4120   23.8230   51.3770 C.3    91  ARG91       0.2205
     20  NE        -0.0040   23.6980   51.7530 N.pl3  91  ARG91      -0.0865
     21  CZ         0.7160   24.6460   52.3500 C.cat  91  ARG91       0.5346
     22  NH1        0.1740   25.8180   52.6630 N.pl3  91  ARG91       0.1354
     23  NH2        1.9890   24.4150   52.6400 N.pl3  91  ARG91       0.1354
     24  N          5.0070   27.4980   50.3920 N.3    94  THR94      -0.1203
     25  CA         6.4520   27.4560   50.2610 C.3    94  THR94       0.1994
     26  C          6.9100   26.1070   50.7910 C.2    94  THR94       0.2619
     27  O          6.1960   25.4610   51.5660 O.2    94  THR94      -0.2717
     28  CB         7.1390   28.5810   51.0570 C.3    94  THR94       0.1784
     29  OG1        6.7860   28.4760   52.4410 O.3    94  THR94      -0.2211
     30  CG2        6.7250   29.9500   50.5290 C.3    94  THR94       0.0376
     31  N          8.0960   25.6800   50.3690 N.am   95  THR95      -0.1938
     32  CA         8.6220   24.3830   50.7760 C.3    95  THR95       0.2028
     33  C         10.1480   24.3400   50.8150 C.2    95  THR95       0.2642
     34  O         10.8240   25.1460   50.1710 O.2    95  THR95      -0.2714
     35  CB         8.0870   23.2410   49.8760 C.3    95  THR95       0.1808
     36  OG1        8.5650   21.9860   50.3670 O.3    95  THR95      -0.2208
     37  CG2        8.5280   23.4190   48.4260 C.3    95  THR95       0.0379
     38  N         10.6730   23.3970   51.5900 N.am   96  GLY96      -0.1954
     39  CA        12.0940   23.0910   51.5920 C.3    96  GLY96       0.1869
     40  C         12.3070   21.7300   50.9600 C.2    96  GLY96       0.2309
     41  O         11.7880   20.7270   51.4510 O.2    96  GLY96      -0.2863
     42  N          7.8950   22.6440   62.2750 N.3   162  PHE162     -0.1241
     43  CA         8.8750   23.2010   61.3590 C.3   162  PHE162      0.1605
     44  C         10.2640   22.6390   61.6540 C.2   162  PHE162      0.2264
     45  O         11.0980   22.5340   60.7500 O.2   162  PHE162     -0.2867
     46  CB         8.8880   24.7270   61.4700 C.3   162  PHE162      0.0534
     47  CG         9.6700   25.4150   60.3840 C.ar  162  PHE162     -0.0203
     48  CD1       11.0050   25.7600   60.5790 C.ar  162  PHE162     -0.0042
     49  CD2        9.0670   25.7340   59.1700 C.ar  162  PHE162     -0.0042
     50  CE1       11.7280   26.4030   59.5820 C.ar  162  PHE162     -0.0003
     51  CE2        9.7840   26.3770   58.1650 C.ar  162  PHE162     -0.0003
     52  CZ        11.1170   26.7100   58.3720 C.ar  162  PHE162     -0.0000
     53  N         10.9660   17.9770   60.7700 N.3   166  GLN166     -0.1245
     54  CA        11.7240   18.1620   59.5370 C.3   166  GLN166      0.1566
     55  C         13.2210   18.0100   59.8210 C.2   166  GLN166      0.2260
     56  O         14.0690   18.5510   59.1040 O.2   166  GLN166     -0.2867
     57  CB        11.4110   19.5290   58.9250 C.3   166  GLN166      0.0367
     58  CG         9.9300   19.7440   58.6180 C.3   166  GLN166      0.0905
     59  CD         9.6500   21.0690   57.9420 C.2   166  GLN166      0.2608
     60  OE1       10.4620   21.5650   57.1630 O.2   166  GLN166     -0.2717
     61  NE2        8.4930   21.6480   58.2330 N.am  166  GLN166     -0.0878
     62  N         15.3790   19.2810   61.9120 N.3   168  ARG168     -0.1245
     63  CA        16.2240   20.4490   62.1280 C.3   168  ARG168      0.1563
     64  C         16.8420   20.3780   63.5230 C.2   168  ARG168      0.2260
     65  O         16.1330   20.2250   64.5220 O.2   168  ARG168     -0.2867
     66  CB        15.4230   21.7440   61.9600 C.3   168  ARG168      0.0307
     67  CG        15.1120   22.1160   60.5150 C.3   168  ARG168      0.0489
     68  CD        14.4800   23.5010   60.4300 C.3   168  ARG168      0.2205
     69  NE        14.5530   24.0630   59.0810 N.pl3 168  ARG168     -0.0865
     70  CZ        13.5940   23.9650   58.1620 C.cat 168  ARG168      0.5346
     71  NH1       12.4610   23.3240   58.4270 N.pl3 168  ARG168      0.1354
     72  NH2       13.7680   24.5150   56.9690 N.pl3 168  ARG168      0.1354
     73  N          9.6950   18.9640   52.3310 N.3   195  TYR195     -0.1227
     74  CA         8.9760   19.1380   53.5810 C.3   195  TYR195      0.1736
     75  C          8.0760   20.3640   53.4900 C.2   195  TYR195      0.2595
     76  O          8.4840   21.4110   52.9830 O.2   195  TYR195     -0.2718
     77  CB         9.9490   19.3680   54.7390 C.3   195  TYR195      0.0548
     78  CG        10.5620   18.1390   55.3750 C.ar  195  TYR195     -0.0200
     79  CD1        9.7660   17.1610   55.9760 C.ar  195  TYR195     -0.0009
     80  CD2       11.9480   17.9850   55.4270 C.ar  195  TYR195     -0.0009
     81  CE1       10.3380   16.0430   56.5810 C.ar  195  TYR195      0.0417
     82  CE2       12.5300   16.8750   56.0300 C.ar  195  TYR195      0.0417
     83  CZ        11.7210   15.9080   56.6050 C.ar  195  TYR195      0.1957
     84  OH        12.2960   14.8110   57.2050 O.3   195  TYR195     -0.2866
     85  N          6.8510   20.2190   53.9790 N.am  196  GLU196     -0.1965
     86  CA         5.9910   21.3560   54.3060 C.3   196  GLU196      0.1733
     87  C          5.0720   20.9490   55.4660 C.2   196  GLU196      0.2616
     88  O          5.3130   19.9210   56.1040 O.2   196  GLU196     -0.2715
     89  CB         5.2370   21.8830   53.0750 C.3   196  GLU196      0.0429
     90  CG         4.4230   20.8560   52.3220 C.3   196  GLU196      0.1163
     91  CD         3.0620   20.6440   52.9370 C.2   196  GLU196      0.3649
     92  OE1        2.2220   21.5670   52.8700 O.co2 196  GLU196     -0.2457
     93  OE2        2.8370   19.5540   53.4970 O.co2 196  GLU196     -0.2457
     94  N          4.0340   21.7340   55.7470 N.am  197  MET197     -0.1963
     95  CA         3.2860   21.5440   56.9950 C.3   197  MET197      0.1736
     96  C          1.7640   21.3740   56.9130 C.2   197  MET197      0.2616
     97  O          1.1250   21.1380   57.9390 O.2   197  MET197     -0.2715
     98  CB         3.6260   22.6680   57.9800 C.3   197  MET197      0.0427
     99  CG         5.0460   22.6050   58.5150 C.3   197  MET197      0.0599
    100  SD         5.4510   23.9480   59.6370 S.3   197  MET197     -0.1393
    101  CE         4.5520   23.4550   61.1060 C.3   197  MET197      0.0692
    102  N          1.1820   21.4750   55.7190 N.am  198  GLU198     -0.1977
    103  CA        -0.2840   21.4960   55.6030 C.3   198  GLU198      0.1602
    104  C         -0.9020   20.4490   54.6760 C.2   198  GLU198      0.2287
    105  O         -2.0630   20.0770   54.8590 O.2   198  GLU198     -0.2864
    106  CB        -0.7780   22.8900   55.1940 C.3   198  GLU198      0.0415
    107  CG        -0.5720   23.9810   56.2390 C.3   198  GLU198      0.1163
    108  CD         0.8500   24.5230   56.2710 C.2   198  GLU198      0.3649
    109  OE1        1.5970   24.3350   55.2870 O.co2 198  GLU198     -0.2457
    110  OE2        1.2250   25.1420   57.2870 O.co2 198  GLU198     -0.2457
    111  N         11.9530   27.2210   48.4290 N.3   220  ILE220     -0.1231
    112  CA        12.6440   28.4100   48.9350 C.3   220  ILE220      0.1692
    113  C         13.9720   28.0790   49.6280 C.2   220  ILE220      0.2591
    114  O         14.7230   28.9820   50.0040 O.2   220  ILE220     -0.2718
    115  CB        11.7400   29.2700   49.8700 C.3   220  ILE220      0.0266
    116  CG1       11.4400   28.5350   51.1820 C.3   220  ILE220      0.0019
    117  CG2       10.4570   29.6900   49.1470 C.3   220  ILE220      0.0020
    118  CD1       11.0540   29.4520   52.3320 C.3   220  ILE220      0.0001
    119  N         14.2460   26.7850   49.7930 N.am  221  VAL221     -0.1980
    120  CA        15.5050   26.3040   50.3710 C.3   221  VAL221      0.1595
    121  C         15.7300   24.8240   50.0390 C.2   221  VAL221      0.2287
    122  O         14.7810   24.0400   49.9930 O.2   221  VAL221     -0.2864
    123  CB        15.5820   26.5570   51.9180 C.3   221  VAL221      0.0276
    124  CG1       14.5660   25.7090   52.6850 C.3   221  VAL221      0.0022
    125  CG2       16.9950   26.3320   52.4490 C.3   221  VAL221      0.0022
    126  N         17.6460   21.5180   51.4780 N.3   223  ARG223     -0.1245
    127  CA        18.1790   21.0300   52.7500 C.3   223  ARG223      0.1563
    128  C         19.4990   20.2570   52.6250 C.2   223  ARG223      0.2260
    129  O         20.0640   19.8180   53.6310 O.2   223  ARG223     -0.2867
    130  CB        17.1220   20.1870   53.4740 C.3   223  ARG223      0.0307
    131  CG        15.8860   20.9690   53.9310 C.3   223  ARG223      0.0489
    132  CD        16.1620   21.8140   55.1760 C.3   223  ARG223      0.2205
    133  NE        16.7540   21.0180   56.2490 N.pl3 223  ARG223     -0.0865
    134  CZ        16.0610   20.3120   57.1390 C.cat 223  ARG223      0.5346
    135  NH1       14.7350   20.2970   57.1050 N.pl3 223  ARG223      0.1354
    136  NH2       16.7010   19.6180   58.0690 N.pl3 223  ARG223      0.1354
@<TRIPOS>BOND
     1    16    15    2
     2    13    14    1
     3    15    14    1
     4    14    17    1
     5    37    35    1
     6   111   112    1
     7   112   113    1
     8   112   115    1
     9   117   115    1
    10    17    18    1
    11   113   119   am
    12   113   114    2
    13   119   120    1
    14   115   116    1
    15    35    36    1
    16    35    32    1
    17   122   121    2
    18   121   120    1
    19    18    19    1
    20    34    33    2
    21    25    24    1
    22    25    26    1
    23    25    28    1
    24    31    32    1
    25    31    26   am
    26   120   123    1
    27    30    28    1
    28    32    33    1
    29    26    27    2
    30    33    38   am
    31    40    41    2
    32    40    39    1
    33    28    29    1
    34   116   118    1
    35    19    20    1
    36   126   127    1
    37    38    39    1
    38    20    21    2
    39   123   125    1
    40   123   124    1
    41    90    91    1
    42    90    89    1
    43    73    74    1
    44    21    23    1
    45    21    22    1
    46   128   127    1
    47   128   129    2
    48   127   130    1
    49    92    91   ar
    50    91    93   ar
    51     1     2    1
    52    76    75    2
    53    89    86    1
    54   130   131    1
    55    75    74    1
    56    75    85   am
    57    74    77    1
    58   131   132    1
    59    85    86    1
    60    86    87    1
    61     2     3    1
    62   104   105    2
    63   104   103    1
    64    77    78    1
    65     3     4    2
    66   132   133    1
    67   106   103    1
    68   106   107    1
    69   109   108   ar
    70    78    80   ar
    71    78    79   ar
    72    80    82   ar
    73    87    94   am
    74    87    88    2
    75   103   102    1
    76   102    96   am
    77    94    95    1
    78    79    81   ar
    79    82    83   ar
    80   107   108    1
    81   133   134    2
    82   108   110   ar
    83    81    83   ar
    84    83    84    1
    85    96    95    1
    86    96    97    2
    87    72    70    1
    88    95    98    1
    89   135   134    1
    90   134   136    1
    91    60    59    2
    92    59    61   am
    93    59    58    1
    94    98    99    1
    95    70    71    1
    96    70    69    2
    97    51    52   ar
    98    51    49   ar
    99    52    50   ar
   100    99   100    1
   101    58    57    1
   102    57    54    1
   103    69    68    1
   104    56    55    2
   105    49    47   ar
   106    10    12    1
   107    10     9    1
   108    54    55    1
   109    54    53    1
   110    50    48   ar
   111     5     6    1
   112     6     9    1
   113     6     7    1
   114   100   101    1
   115    11     9    1
   116     7     8    2
   117    47    48   ar
   118    47    46    1
   119    68    67    1
   120    67    66    1
   121    45    44    2
   122    43    46    1
   123    43    44    1
   124    43    42    1
   125    62    63    1
   126    66    63    1
   127    63    64    1
   128    64    65    2
