@<TRIPOS>MOLECULE
tmp/2hx1A00.pdb
 138 130 0 0 0
SMALL
GASTEIGER

@<TRIPOS>ATOM
      1  N         21.3870    7.7410  -53.2410 N.3    19  ASP19      -0.1239
      2  CA        22.3630    7.0060  -52.4480 C.3    19  ASP19       0.1674
      3  C         21.6980    5.6780  -52.0360 C.2    19  ASP19       0.2266
      4  O         20.4660    5.6220  -51.9650 O.2    19  ASP19      -0.2867
      5  CB        22.7670    7.8260  -51.2160 C.3    19  ASP19       0.1410
      6  CG        23.6760    7.0690  -50.2680 C.2    19  ASP19       0.3668
      7  OD1       24.6190    6.4100  -50.7290 O.co2  19  ASP19      -0.2456
      8  OD2       23.4390    7.1340  -49.0460 O.co2  19  ASP19      -0.2456
      9  N         22.9440    3.0040  -49.2760 N.3    21  PHE21      -0.1241
     10  CA        22.9190    2.7050  -47.8470 C.3    21  PHE21       0.1605
     11  C         22.4240    3.8970  -47.0210 C.2    21  PHE21       0.2264
     12  O         22.8820    5.0420  -47.2020 O.2    21  PHE21      -0.2867
     13  CB        24.2770    2.1880  -47.3460 C.3    21  PHE21       0.0534
     14  CG        24.4950    0.7140  -47.5810 C.ar   21  PHE21      -0.0203
     15  CD1       23.9170   -0.2330  -46.7460 C.ar   21  PHE21      -0.0042
     16  CD2       25.2950    0.2640  -48.6370 C.ar   21  PHE21      -0.0042
     17  CE1       24.1190   -1.6120  -46.9680 C.ar   21  PHE21      -0.0003
     18  CE2       25.5040   -1.1090  -48.8560 C.ar   21  PHE21      -0.0003
     19  CZ        24.9220   -2.0400  -48.0160 C.ar   21  PHE21      -0.0000
     20  N         26.5360    5.6100  -55.8790 N.3    52  THR52      -0.1203
     21  CA        27.0260    4.9750  -54.6960 C.3    52  THR52       0.1994
     22  C         28.5510    4.9890  -54.6790 C.2    52  THR52       0.2618
     23  O         29.1970    4.8390  -55.7410 O.2    52  THR52      -0.2717
     24  CB        26.5260    3.5260  -54.6470 C.3    52  THR52       0.1784
     25  OG1       27.0050    2.8790  -53.4540 O.3    52  THR52      -0.2211
     26  CG2       26.9850    2.7400  -55.8720 C.3    52  THR52       0.0376
     27  N         29.1020    5.1940  -53.4850 N.am   53  ASN53      -0.1960
     28  CA        30.5380    5.0750  -53.2270 C.3    53  ASN53       0.1819
     29  C         30.9830    3.6330  -52.9100 C.2    53  ASN53       0.2621
     30  O         32.0880    3.4080  -52.4500 O.2    53  ASN53      -0.2715
     31  CB        30.9520    6.0100  -52.0750 C.3    53  ASN53       0.1195
     32  CG        31.0080    7.4600  -52.4930 C.2    53  ASN53       0.2630
     33  OD1       30.7320    7.7910  -53.6570 O.2    53  ASN53      -0.2716
     34  ND2       31.3600    8.3500  -51.5440 N.am   53  ASN53      -0.0877
     35  N         30.1150    2.6580  -53.1330 N.am   54  ASP54      -0.1971
     36  CA        30.4660    1.2480  -52.9740 C.3    54  ASP54       0.1709
     37  C         31.2290    0.7400  -54.2090 C.2    54  ASP54       0.2293
     38  O         30.6100    0.5240  -55.2290 O.2    54  ASP54      -0.2864
     39  CB        29.1790    0.4580  -52.7470 C.3    54  ASP54       0.1436
     40  CG        29.4230   -1.0010  -52.4230 C.2    54  ASP54       0.3671
     41  OD1       30.5460   -1.5210  -52.6240 O.co2  54  ASP54      -0.2456
     42  OD2       28.4530   -1.6240  -51.9530 O.co2  54  ASP54      -0.2456
     43  N         33.1430   -2.1540  -54.0150 N.3    56  SER56      -0.1202
     44  CA        33.5320   -3.5060  -53.5930 C.3    56  SER56       0.2020
     45  C         33.0350   -4.5970  -54.5530 C.2    56  SER56       0.2618
     46  O         33.3510   -5.7470  -54.3270 O.2    56  SER56      -0.2717
     47  CB        32.9970   -3.8360  -52.1880 C.3    56  SER56       0.2103
     48  OG        31.5890   -3.9180  -52.2110 O.3    56  SER56      -0.2182
     49  N         32.2170   -4.2190  -55.5420 N.am   57  ARG57      -0.1979
     50  CA        31.6290   -5.1120  -56.5410 C.3    57  ARG57       0.1597
     51  C         31.4430   -4.3240  -57.8370 C.2    57  ARG57       0.2287
     52  O         31.4240   -3.0990  -57.8120 O.2    57  ARG57      -0.2864
     53  CB        30.2430   -5.5890  -56.0790 C.3    57  ARG57       0.0334
     54  CG        30.2540   -6.8060  -55.1880 C.3    57  ARG57       0.0492
     55  CD        29.0310   -6.8960  -54.2700 C.3    57  ARG57       0.2205
     56  NE        29.3520   -7.7270  -53.1060 N.pl3  57  ARG57      -0.0865
     57  CZ        29.8130   -7.2680  -51.9420 C.cat  57  ARG57       0.5346
     58  NH1       29.9870   -5.9690  -51.7360 N.pl3  57  ARG57       0.1354
     59  NH2       30.0880   -8.1180  -50.9600 N.pl3  57  ARG57       0.1354
     60  N         36.8880   -4.0110  -46.4270 N.3   138  ASP138     -0.1239
     61  CA        37.4800   -4.1790  -45.0960 C.3   138  ASP138      0.1674
     62  C         37.7490   -5.6510  -44.7510 C.2   138  ASP138      0.2266
     63  O         38.6140   -5.9630  -43.9110 O.2   138  ASP138     -0.2867
     64  CB        36.5980   -3.5330  -44.0240 C.3   138  ASP138      0.1410
     65  CG        35.2070   -4.1540  -43.9700 C.2   138  ASP138      0.3668
     66  OD1       34.4530   -3.9150  -44.9220 O.co2 138  ASP138     -0.2456
     67  OD2       34.8810   -4.8610  -42.9890 O.co2 138  ASP138     -0.2456
     68  N         35.4520    6.7560  -51.4090 N.3   165  ASN165     -0.1225
     69  CA        35.2640    7.6790  -50.2940 C.3   165  ASN165      0.1785
     70  C         34.0790    7.2640  -49.4370 C.2   165  ASN165      0.2598
     71  O         33.1090    8.0140  -49.2990 O.2   165  ASN165     -0.2718
     72  CB        35.0530    9.0930  -50.8130 C.3   165  ASN165      0.1169
     73  CG        35.1890   10.1250  -49.7250 C.2   165  ASN165      0.2627
     74  OD1       36.0790   10.0290  -48.9000 O.2   165  ASN165     -0.2716
     75  ND2       34.3090   11.1160  -49.7170 N.am  165  ASN165     -0.0877
     76  N         34.1550    6.0810  -48.8390 N.am  166  THR166     -0.1939
     77  CA        33.0230    5.5920  -48.0710 C.3   166  THR166      0.2028
     78  C         33.0660    6.3020  -46.7150 C.2   166  THR166      0.2642
     79  O         34.0470    6.9810  -46.3650 O.2   166  THR166     -0.2714
     80  CB        33.0560    4.0480  -47.8820 C.3   166  THR166      0.1808
     81  OG1       34.0220    3.6950  -46.8860 O.3   166  THR166     -0.2208
     82  CG2       33.3750    3.2910  -49.2130 C.3   166  THR166      0.0379
     83  N         31.9860    6.1580  -45.9650 N.am  167  ASP167     -0.1971
     84  CA        31.9580    6.5990  -44.5890 C.3   167  ASP167      0.1709
     85  C         33.0510    5.8010  -43.8800 C.2   167  ASP167      0.2293
     86  O         33.4210    4.7380  -44.3430 O.2   167  ASP167     -0.2864
     87  CB        30.5720    6.3200  -43.9630 C.3   167  ASP167      0.1436
     88  CG        29.4090    7.0610  -44.6890 C.2   167  ASP167      0.3671
     89  OD1       29.5610    8.2750  -44.9960 O.co2 167  ASP167     -0.2456
     90  OD2       28.3340    6.4230  -44.9100 O.co2 167  ASP167     -0.2456
     91  N         32.7400    4.3200  -41.0120 N.3   169  THR169     -0.1203
     92  CA        32.0900    3.1220  -40.4660 C.3   169  THR169      0.1994
     93  C         30.7670    2.8570  -41.1590 C.2   169  THR169      0.2617
     94  O         30.2180    3.7480  -41.7930 O.2   169  THR169     -0.2717
     95  CB        31.7790    3.2500  -38.9770 C.3   169  THR169      0.1784
     96  OG1       30.8280    4.2970  -38.7800 O.3   169  THR169     -0.2211
     97  CG2       33.0480    3.5130  -38.1780 C.3   169  THR169      0.0376
     98  N         30.2700    1.6280  -41.0370 N.am  170  TYR170     -0.1975
     99  CA        28.9000    1.2830  -41.4280 C.3   170  TYR170      0.1639
    100  C         28.1590    0.5780  -40.2890 C.2   170  TYR170      0.2290
    101  O         28.7770   -0.1340  -39.4800 O.2   170  TYR170     -0.2864
    102  CB        28.8810    0.3990  -42.6880 C.3   170  TYR170      0.0560
    103  CG        29.6270   -0.9630  -42.6570 C.ar  170  TYR170     -0.0198
    104  CD1       30.9740   -1.0340  -42.9580 C.ar  170  TYR170     -0.0009
    105  CD2       28.9600   -2.1750  -42.4030 C.ar  170  TYR170     -0.0009
    106  CE1       31.6740   -2.2340  -42.9710 C.ar  170  TYR170      0.0417
    107  CE2       29.6700   -3.4200  -42.4200 C.ar  170  TYR170      0.0417
    108  CZ        31.0310   -3.4240  -42.7140 C.ar  170  TYR170      0.1957
    109  OH        31.7920   -4.5870  -42.7510 O.3   170  TYR170     -0.2866
    110  N         34.6590    0.5970  -42.1900 N.3   180  ALA180     -0.1231
    111  CA        34.5060    0.4190  -43.6400 C.3   180  ALA180      0.1694
    112  C         35.8380    0.6560  -44.2860 C.2   180  ALA180      0.2591
    113  O         36.7790    1.1100  -43.6320 O.2   180  ALA180     -0.2718
    114  CB        33.4860    1.3810  -44.2220 C.3   180  ALA180      0.0304
    115  N         35.9260    0.3520  -45.5780 N.am  181  ILE181     -0.1980
    116  CA        37.2090    0.4460  -46.2970 C.3   181  ILE181      0.1595
    117  C         37.7590    1.9010  -46.2790 C.2   181  ILE181      0.2287
    118  O         38.9710    2.1280  -46.1330 O.2   181  ILE181     -0.2864
    119  CB        37.1180   -0.1870  -47.6990 C.3   181  ILE181      0.0276
    120  CG1       38.5200   -0.4110  -48.2790 C.3   181  ILE181      0.0022
    121  CG2       36.1740    0.6390  -48.6590 C.3   181  ILE181      0.0022
    122  CD1       39.4540   -1.3650  -47.4220 C.3   181  ILE181      0.0001
    123  N         31.4300   10.5830  -54.2260 N.3   200  LYS200     -0.1245
    124  CA        30.8060   11.7190  -53.5600 C.3   200  LYS200      0.1561
    125  C         31.6720   12.1050  -52.3670 C.2   200  LYS200      0.2260
    126  O         32.1450   11.2240  -51.6610 O.2   200  LYS200     -0.2867
    127  CB        29.3840   11.3590  -53.0870 C.3   200  LYS200      0.0271
    128  CG        28.4530   10.7560  -54.1870 C.3   200  LYS200      0.0035
    129  CD        27.1580   10.2240  -53.5920 C.3   200  LYS200      0.0206
    130  CE        27.3470    8.9110  -52.8350 C.3   200  LYS200      0.1093
    131  NZ        26.0580    8.2850  -52.5050 N.3   200  LYS200     -0.1314
    132  N         28.7560   13.9190  -47.8090 N.3   228  THR228     -0.1218
    133  CA        28.9810   13.2230  -49.0700 C.3   228  THR228      0.1862
    134  C         27.8310   13.4790  -50.1000 C.2   228  THR228      0.2287
    135  O         28.0110   14.1540  -51.1460 O.2   228  THR228     -0.2866
    136  CB        29.1720   11.6690  -48.8570 C.3   228  THR228      0.1770
    137  OG1       28.0330   11.1220  -48.1970 O.3   228  THR228     -0.2211
    138  CG2       30.3970   11.3270  -48.0020 C.3   228  THR228      0.0375
@<TRIPOS>BOND
     1    51    52    2
     2    51    50    1
     3    50    53    1
     4    50    49    1
     5    53    54    1
     6    20    21    1
     7    26    24    1
     8    23    22    2
     9    49    45   am
    10    38    37    2
    11    54    55    1
    12    21    22    1
    13    21    24    1
    14    22    27   am
    15    24    25    1
    16    45    46    2
    17    45    44    1
    18    55    56    1
    19   123   124    1
    20    37    36    1
    21   128   129    1
    22   128   127    1
    23    43    44    1
    24    33    32    2
    25    44    47    1
    26   129   130    1
    27   124   127    1
    28   124   125    1
    29    27    28    1
    30     1     2    1
    31    28    29    1
    32    28    31    1
    33    35    36    1
    34    35    29   am
    35    56    57    2
    36    36    39    1
    37    29    30    2
    38   130   131    1
    39    39    40    1
    40    41    40   ar
    41    32    31    1
    42    32    34   am
    43     2     3    1
    44     2     5    1
    45    40    42   ar
    46   125   126    2
    47    48    47    1
    48     3     4    2
    49    57    58    1
    50    57    59    1
    51    68    69    1
    52     5     6    1
    53   135   134    2
    54    72    69    1
    55    72    73    1
    56     7     6   ar
    57    69    70    1
    58     6     8   ar
    59   134   133    1
    60    73    75   am
    61    73    74    2
    62    70    71    2
    63    70    76   am
    64     9    10    1
    65    82    80    1
    66   133   136    1
    67   133   132    1
    68   136   137    1
    69   136   138    1
    70    18    16   ar
    71    18    19   ar
    72    76    77    1
    73   121   119    1
    74    16    14   ar
    75   120   119    1
    76   120   122    1
    77    77    80    1
    78    77    78    1
    79    19    17   ar
    80    80    81    1
    81    10    13    1
    82    10    11    1
    83   119   116    1
    84    14    13    1
    85    14    15   ar
    86    12    11    2
    87    17    15   ar
    88    78    79    2
    89    78    83   am
    90    60    61    1
    91   116   117    1
    92   116   115    1
    93   117   118    2
    94    83    84    1
    95   115   112   am
    96    61    62    1
    97    61    64    1
    98    89    88   ar
    99    66    65   ar
   100    90    88   ar
   101    62    63    2
   102    88    87    1
   103    84    87    1
   104    84    85    1
   105    86    85    2
   106   112   111    1
   107   112   113    2
   108   114   111    1
   109    64    65    1
   110    65    67   ar
   111   111   110    1
   112   106   104   ar
   113   106   108   ar
   114   104   103   ar
   115   109   108    1
   116   108   107   ar
   117   102   103    1
   118   102    99    1
   119   103   105   ar
   120   107   105   ar
   121    94    93    2
   122    99    98    1
   123    99   100    1
   124    93    98   am
   125    93    92    1
   126    91    92    1
   127    92    95    1
   128   100   101    2
   129    95    96    1
   130    95    97    1
