@<TRIPOS>MOLECULE
tmp/2hxcA00.pdb
 83 81 0 0 0
SMALL
GASTEIGER

@<TRIPOS>ATOM
      1  N          2.2240    8.5650    5.0610 N.3    14  ASP14      -0.1225
      2  CA         1.4910    8.3860    6.3080 C.3    14  ASP14       0.1805
      3  C          2.3040    7.3710    7.1080 C.2    14  ASP14       0.2598
      4  O          2.2630    6.1770    6.8280 O.2    14  ASP14      -0.2718
      5  CB         0.0820    7.8420    6.0130 C.3    14  ASP14       0.1424
      6  CG        -0.7030    7.4530    7.2800 C.2    14  ASP14       0.3668
      7  OD1       -0.3100    7.8860    8.3730 O.co2  14  ASP14      -0.2456
      8  OD2       -1.7230    6.7110    7.1830 O.co2  14  ASP14      -0.2456
      9  N          3.1250    7.8520    8.0140 N.am   15  GLY15      -0.1957
     10  CA         4.0190    6.9790    8.7530 C.3    15  GLY15       0.1869
     11  C          5.2110    7.7110    9.3080 C.2    15  GLY15       0.2309
     12  O          5.1910    8.8970    9.4160 O.2    15  GLY15      -0.2863
     13  N          6.9210    0.2870    2.9340 N.3    57  ASP57      -0.1239
     14  CA         7.1380    0.2560    4.3510 C.3    57  ASP57       0.1674
     15  C          8.3040   -0.6800    4.6840 C.2    57  ASP57       0.2266
     16  O          8.7540   -1.4960    3.8510 O.2    57  ASP57      -0.2867
     17  CB         5.8590   -0.1140    5.0690 C.3    57  ASP57       0.1410
     18  CG         4.7800    1.0070    4.9960 C.2    57  ASP57       0.3668
     19  OD1        5.1410    2.1950    4.7780 O.co2  57  ASP57      -0.2456
     20  OD2        3.5690    0.7270    5.2480 O.co2  57  ASP57      -0.2456
     21  N         -3.1570    5.5990    1.3480 N.3    85  ASN85      -0.1225
     22  CA        -2.1560    5.4920    2.4220 C.3    85  ASN85       0.1785
     23  C         -2.6840    5.3200    3.8480 C.2    85  ASN85       0.2597
     24  O         -1.9170    5.4430    4.7840 O.2    85  ASN85      -0.2718
     25  CB        -1.1060    6.6330    2.3410 C.3    85  ASN85       0.1169
     26  CG        -1.6140    7.9670    2.8200 C.2    85  ASN85       0.2627
     27  OD1       -2.6890    8.0850    3.4100 O.2    85  ASN85      -0.2716
     28  ND2       -0.7800    9.0070    2.6160 N.am   85  ASN85      -0.0877
     29  N         -3.9620    4.9650    4.0050 N.am   86  ASP86      -0.1960
     30  CA        -4.5100    4.6420    5.3400 C.3    86  ASP86       0.1840
     31  C         -4.5310    3.1380    5.6140 C.2    86  ASP86       0.2622
     32  O         -5.2350    2.6720    6.5300 O.2    86  ASP86      -0.2715
     33  CB        -5.9210    5.1970    5.5290 C.3    86  ASP86       0.1450
     34  CG        -5.9970    6.7060    5.4080 C.2    86  ASP86       0.3671
     35  OD1       -4.9800    7.3840    5.6350 O.co2  86  ASP86      -0.2456
     36  OD2       -7.1030    7.2050    5.0800 O.co2  86  ASP86      -0.2456
     37  N         -3.7780    2.4000    4.8110 N.am   87  VAL87      -0.1963
     38  CA        -3.5600    0.9750    5.0370 C.3    87  VAL87       0.1727
     39  C         -2.0850    0.6960    5.2630 C.2    87  VAL87       0.2616
     40  O         -1.2400    1.4710    4.8700 O.2    87  VAL87      -0.2715
     41  CB        -4.1280    0.0860    3.8760 C.3    87  VAL87       0.0290
     42  CG1       -5.6130    0.1710    3.8490 C.3    87  VAL87       0.0023
     43  CG2       -3.5480    0.4650    2.5260 C.3    87  VAL87       0.0023
     44  N         -1.7970   -0.4010    5.9560 N.am   88  ASN88      -0.1958
     45  CA        -0.4530   -0.8190    6.2280 C.3    88  ASN88       0.1819
     46  C          0.1190   -1.5220    5.0360 C.2    88  ASN88       0.2621
     47  O         -0.2790   -2.6470    4.7410 O.2    88  ASN88      -0.2715
     48  CB        -0.4990   -1.7620    7.4160 C.3    88  ASN88       0.1195
     49  CG         0.8540   -2.2420    7.8490 C.2    88  ASN88       0.2630
     50  OD1        1.8770   -1.6590    7.5120 O.2    88  ASN88      -0.2716
     51  ND2        0.8620   -3.3500    8.6100 N.am   88  ASN88      -0.0877
     52  N          1.0680   -0.8940    4.3460 N.am   89  TRP89      -0.1974
     53  CA         1.6360   -1.4930    3.1540 C.3    89  TRP89       0.1640
     54  C          2.6070   -2.6450    3.5260 C.2    89  TRP89       0.2290
     55  O          3.1180   -3.3210    2.6180 O.2    89  TRP89      -0.2864
     56  CB         2.2080   -0.4210    2.1650 C.3    89  TRP89       0.0576
     57  CG         1.0730    0.1400    1.3280 C.ar   89  TRP89       0.0006
     58  CD1        0.4310    1.4110    1.3480 C.ar   89  TRP89       0.0946
     59  CD2        0.2440   -0.6150    0.4450 C.ar   89  TRP89       0.0152
     60  NE1       -0.6360    1.4800    0.5640 N.ar   89  TRP89      -0.2442
     61  CE2       -0.7790    0.2570   -0.0450 C.ar   89  TRP89       0.0810
     62  CE3        0.3260   -1.9030   -0.0780 C.ar   89  TRP89       0.0012
     63  CZ2       -1.7200   -0.1550   -0.9600 C.ar   89  TRP89       0.0191
     64  CZ3       -0.6000   -2.2960   -1.0050 C.ar   89  TRP89       0.0001
     65  CH2       -1.6200   -1.4280   -1.4290 C.ar   89  TRP89       0.0015
     66  N          4.4230   -2.6960   11.5250 N.3    98  PHE98      -0.1241
     67  CA         4.8910   -1.5350   10.7860 C.3    98  PHE98       0.1605
     68  C          5.9690   -0.7490   11.5210 C.2    98  PHE98       0.2264
     69  O          5.7530   -0.3300   12.6700 O.2    98  PHE98      -0.2867
     70  CB         3.7120   -0.5990   10.4800 C.3    98  PHE98       0.0534
     71  CG         4.1460    0.7500    9.9350 C.ar   98  PHE98      -0.0203
     72  CD1        4.6990    0.8660    8.6620 C.ar   98  PHE98      -0.0042
     73  CD2        4.0590    1.8960   10.7200 C.ar   98  PHE98      -0.0042
     74  CE1        5.1140    2.1220    8.1850 C.ar   98  PHE98      -0.0003
     75  CE2        4.4790    3.1110   10.2460 C.ar   98  PHE98      -0.0003
     76  CZ         4.9990    3.2260    8.9770 C.ar   98  PHE98      -0.0000
     77  N          8.3810    4.2140    6.9940 N.3   101  THR101     -0.1218
     78  CA         8.0440    4.3400    5.5740 C.3   101  THR101      0.1862
     79  C          9.2420    4.9390    4.8220 C.2   101  THR101      0.2287
     80  O          9.8640    5.8980    5.2860 O.2   101  THR101     -0.2866
     81  CB         6.8490    5.2610    5.3930 C.3   101  THR101      0.1770
     82  OG1        5.7440    4.7560    6.1430 O.3   101  THR101     -0.2211
     83  CG2        6.4110    5.3340    3.9120 C.3   101  THR101      0.0375
@<TRIPOS>BOND
     1    65    64   ar
     2    65    63   ar
     3    64    62   ar
     4    63    61   ar
     5    62    59   ar
     6    61    59   ar
     7    61    60   ar
     8    59    57   ar
     9    60    58   ar
    10    57    58   ar
    11    57    56    1
    12    21    22    1
    13    56    53    1
    14    25    22    1
    15    25    26    1
    16    22    23    1
    17    43    41    1
    18    28    26   am
    19    55    54    2
    20    26    27    2
    21    13    14    1
    22    53    54    1
    23    53    52    1
    24    23    29   am
    25    23    24    2
    26    42    41    1
    27    16    15    2
    28    41    38    1
    29    83    81    1
    30    29    30    1
    31    52    46   am
    32    14    15    1
    33    14    17    1
    34    47    46    2
    35    19    18   ar
    36    37    38    1
    37    37    31   am
    38    79    80    2
    39    79    78    1
    40    40    39    2
    41    18    17    1
    42    18    20   ar
    43    46    45    1
    44    38    39    1
    45     1     2    1
    46    36    34   ar
    47    39    44   am
    48    30    33    1
    49    30    31    1
    50    81    78    1
    51    81    82    1
    52    34    33    1
    53    34    35   ar
    54    78    77    1
    55    31    32    2
    56    44    45    1
    57     5     2    1
    58     5     6    1
    59    45    48    1
    60     2     3    1
    61     4     3    2
    62     3     9   am
    63     8     6   ar
    64     6     7   ar
    65    48    49    1
    66    50    49    2
    67    49    51   am
    68     9    10    1
    69    74    72   ar
    70    74    76   ar
    71    72    71   ar
    72    10    11    1
    73    76    75   ar
    74    11    12    2
    75    71    70    1
    76    71    73   ar
    77    75    73   ar
    78    70    67    1
    79    67    68    1
    80    67    66    1
    81    68    69    2
