@<TRIPOS>MOLECULE
tmp/2hxdA00.pdb
 150 148 0 0 0
SMALL
GASTEIGER

@<TRIPOS>ATOM
      1  N         52.3930   49.6170  111.3320 N.3   114  TYR114     -0.1241
      2  CA        53.5360   49.3250  110.4650 C.3   114  TYR114      0.1605
      3  C         54.7370   50.1230  111.0380 C.2   114  TYR114      0.2264
      4  O         54.6440   51.3190  111.3220 O.2   114  TYR114     -0.2867
      5  CB        53.2840   49.6610  108.9670 C.3   114  TYR114      0.0534
      6  CG        54.5930   49.5340  108.1760 C.ar  114  TYR114     -0.0201
      7  CD1       55.4550   50.6350  108.0370 C.ar  114  TYR114     -0.0009
      8  CD2       54.9920   48.3070  107.6350 C.ar  114  TYR114     -0.0009
      9  CE1       56.6720   50.5100  107.3720 C.ar  114  TYR114      0.0417
     10  CE2       56.2420   48.1590  106.9680 C.ar  114  TYR114      0.0417
     11  CZ        57.0780   49.2900  106.8460 C.ar  114  TYR114      0.1957
     12  OH        58.3250   49.2270  106.2270 O.3   114  TYR114     -0.2866
     13  N         57.8520   54.8070  106.5560 N.3   128  HIS128     -0.1241
     14  CA        56.6290   55.5860  106.6610 C.3   128  HIS128      0.1621
     15  C         56.9680   56.9700  107.2160 C.2   128  HIS128      0.2264
     16  O         57.9700   57.1330  107.9260 O.2   128  HIS128     -0.2867
     17  CB        55.5220   54.8880  107.4960 C.3   128  HIS128      0.0745
     18  CG        55.7320   54.9600  108.9680 C.ar  128  HIS128      0.0817
     19  ND1       56.3570   53.9550  109.6810 N.ar  128  HIS128     -0.2268
     20  CD2       55.3790   55.9100  109.8730 C.ar  128  HIS128      0.1154
     21  CE1       56.4110   54.3040  110.9570 C.ar  128  HIS128      0.1986
     22  NE2       55.8440   55.4980  111.0940 N.ar  128  HIS128     -0.2212
     23  N         53.0360   57.9330  109.8370 N.3   131  ALA131     -0.1231
     24  CA        51.8160   57.2680  109.4280 C.3   131  ALA131      0.1694
     25  C         51.9440   55.7960  109.9170 C.2   131  ALA131      0.2593
     26  O         52.1000   55.5580  111.1350 O.2   131  ALA131     -0.2718
     27  CB        51.6410   57.3830  107.8900 C.3   131  ALA131      0.0304
     28  N         51.8940   54.8060  109.0300 N.am  132  GLY132     -0.1942
     29  CA        51.8830   53.3900  109.4980 C.3   132  GLY132      0.2014
     30  C         50.7390   52.8020  110.3840 C.2   132  GLY132      0.2639
     31  O         50.7240   51.6190  110.6510 O.2   132  GLY132     -0.2714
     32  N         49.7880   53.6080  110.8530 N.am  133  TRP133     -0.1959
     33  CA        48.5940   53.0710  111.5570 C.3   133  TRP133      0.1771
     34  C         47.5600   52.4240  110.5770 C.2   133  TRP133      0.2620
     35  O         47.0970   53.0620  109.6220 O.2   133  TRP133     -0.2715
     36  CB        47.9250   54.1600  112.3960 C.3   133  TRP133      0.0590
     37  CG        46.8690   53.5640  113.2490 C.ar  133  TRP133      0.0006
     38  CD1       45.4920   53.7560  113.1680 C.ar  133  TRP133      0.0946
     39  CD2       47.0920   52.6290  114.2800 C.ar  133  TRP133      0.0152
     40  NE1       44.8630   53.0020  114.1300 N.ar  133  TRP133     -0.2442
     41  CE2       45.8240   52.2870  114.8180 C.ar  133  TRP133      0.0810
     42  CE3       48.2480   52.0610  114.8370 C.ar  133  TRP133      0.0012
     43  CZ2       45.6980   51.3840  115.8820 C.ar  133  TRP133      0.0191
     44  CZ3       48.1300   51.1720  115.8720 C.ar  133  TRP133      0.0001
     45  CH2       46.8770   50.8310  116.3830 C.ar  133  TRP133      0.0015
     46  N         47.2770   51.1430  110.7840 N.am  134  ILE134     -0.1963
     47  CA        46.3980   50.3510  109.9360 C.3   134  ILE134      0.1727
     48  C         45.1340   50.1410  110.7620 C.2   134  ILE134      0.2616
     49  O         45.1820   49.6010  111.8390 O.2   134  ILE134     -0.2715
     50  CB        47.0030   48.9680  109.6100 C.3   134  ILE134      0.0290
     51  CG1       48.5340   49.0090  109.4130 C.3   134  ILE134      0.0022
     52  CG2       46.2940   48.3220  108.4070 C.3   134  ILE134      0.0023
     53  CD1       48.9900   49.9500  108.3550 C.3   134  ILE134      0.0001
     54  N         44.0250   50.6760  110.2960 N.am  135  ASP135     -0.1971
     55  CA        42.7460   50.5860  110.9770 C.3   135  ASP135      0.1709
     56  C         42.1720   49.1490  110.9990 C.2   135  ASP135      0.2293
     57  O         42.3260   48.3640  110.0600 O.2   135  ASP135     -0.2864
     58  CB        41.7240   51.4300  110.2490 C.3   135  ASP135      0.1436
     59  CG        42.1310   52.8840  110.1240 C.2   135  ASP135      0.3671
     60  OD1       42.6260   53.3010  108.9970 O.co2 135  ASP135     -0.2456
     61  OD2       41.9430   53.5870  111.1570 O.co2 135  ASP135     -0.2456
     62  N         40.6760   47.0560  107.8400 N.3   138  PHE138     -0.1241
     63  CA        41.3750   47.4680  106.6460 C.3   138  PHE138      0.1605
     64  C         41.5820   46.2540  105.7760 C.2   138  PHE138      0.2264
     65  O         41.9170   45.1840  106.2650 O.2   138  PHE138     -0.2867
     66  CB        42.7410   48.1380  106.9610 C.3   138  PHE138      0.0534
     67  CG        43.6070   48.3690  105.7360 C.ar  138  PHE138     -0.0203
     68  CD1       43.3290   49.4110  104.8500 C.ar  138  PHE138     -0.0042
     69  CD2       44.6980   47.5620  105.4820 C.ar  138  PHE138     -0.0042
     70  CE1       44.1080   49.6210  103.7300 C.ar  138  PHE138     -0.0003
     71  CE2       45.4760   47.7560  104.3730 C.ar  138  PHE138     -0.0003
     72  CZ        45.1790   48.8020  103.4850 C.ar  138  PHE138     -0.0000
     73  N         50.0460   47.4320  101.8800 N.3   142  ILE142     -0.1231
     74  CA        50.4070   48.6470  102.6370 C.3   142  ILE142      0.1692
     75  C         51.3460   49.5570  101.8520 C.2   142  ILE142      0.2592
     76  O         52.3600   49.1180  101.3250 O.2   142  ILE142     -0.2718
     77  CB        50.9130   48.2480  104.0460 C.3   142  ILE142      0.0266
     78  CG1       49.7050   47.5900  104.8060 C.3   142  ILE142      0.0019
     79  CG2       51.5040   49.4640  104.8500 C.3   142  ILE142      0.0020
     80  CD1       50.1070   46.6750  105.7610 C.3   142  ILE142      0.0001
     81  N         50.9450   50.8150  101.7260 N.am  143  THR143     -0.1953
     82  CA        51.7240   51.8130  101.0010 C.3   143  THR143      0.1897
     83  C         52.8240   52.3530  101.9200 C.2   143  THR143      0.2313
     84  O         52.5510   52.8040  103.0310 O.2   143  THR143     -0.2863
     85  CB        50.8460   52.9340  100.4120 C.3   143  THR143      0.1794
     86  OG1       50.1840   52.4000   99.2630 O.3   143  THR143     -0.2208
     87  CG2       51.6950   54.1180   99.9480 C.3   143  THR143      0.0378
     88  N         37.3380   49.7700  108.6250 N.3   177  TYR177     -0.1241
     89  CA        37.8160   50.6380  107.5480 C.3   177  TYR177      0.1605
     90  C         37.1770   50.3500  106.1720 C.2   177  TYR177      0.2264
     91  O         36.6960   51.2750  105.4990 O.2   177  TYR177     -0.2867
     92  CB        39.3470   50.5850  107.4380 C.3   177  TYR177      0.0534
     93  CG        39.8920   51.5800  106.4410 C.ar  177  TYR177     -0.0201
     94  CD1       40.0370   52.9250  106.7910 C.ar  177  TYR177     -0.0009
     95  CD2       40.2010   51.2030  105.1320 C.ar  177  TYR177     -0.0009
     96  CE1       40.5330   53.8740  105.8730 C.ar  177  TYR177      0.0417
     97  CE2       40.7030   52.1470  104.2000 C.ar  177  TYR177      0.0417
     98  CZ        40.8660   53.4720  104.5860 C.ar  177  TYR177      0.1957
     99  OH        41.3370   54.3960  103.7070 O.3   177  TYR177     -0.2866
    100  N         33.4680   56.5220  103.1360 N.3   182  THR182     -0.1203
    101  CA        34.4900   57.5790  103.1750 C.3   182  THR182      0.1994
    102  C         35.9250   57.0980  102.8720 C.2   182  THR182      0.2619
    103  O         36.7510   57.9110  102.4790 O.2   182  THR182     -0.2717
    104  CB        34.5300   58.3120  104.5710 C.3   182  THR182      0.1784
    105  OG1       34.6950   57.3550  105.6400 O.3   182  THR182     -0.2211
    106  CG2       33.2770   59.1450  104.7910 C.3   182  THR182      0.0376
    107  N         36.1920   55.7960  103.0460 N.am  183  SER183     -0.1937
    108  CA        37.5550   55.2260  102.9790 C.3   183  SER183      0.2055
    109  C         38.2120   55.3540  101.6070 C.2   183  SER183      0.2643
    110  O         37.6240   54.9840  100.6080 O.2   183  SER183     -0.2714
    111  CB        37.5570   53.7700  103.4270 C.3   183  SER183      0.2130
    112  OG        37.3060   53.7160  104.8120 O.3   183  SER183     -0.2179
    113  N         39.4360   55.8940  101.5840 N.am  184  LYS184     -0.1963
    114  CA        40.1310   56.2310  100.3430 C.3   184  LYS184      0.1728
    115  C         40.9240   55.0320   99.8160 C.2   184  LYS184      0.2616
    116  O         41.0410   54.8670   98.6130 O.2   184  LYS184     -0.2715
    117  CB        41.0990   57.4190  100.5610 C.3   184  LYS184      0.0311
    118  CG        40.4630   58.7490  100.9770 C.3   184  LYS184      0.0038
    119  CD        41.5480   59.7830  101.3480 C.3   184  LYS184      0.0206
    120  CE        40.9290   61.1570  101.7070 C.3   184  LYS184      0.1093
    121  NZ        39.8750   61.1080  102.7860 N.3   184  LYS184     -0.1314
    122  N         41.4600   54.2060  100.7230 N.am  185  TYR185     -0.1974
    123  CA        42.5640   53.2630  100.4000 C.3   185  TYR185      0.1639
    124  C         42.2600   51.7220  100.5620 C.2   185  TYR185      0.2290
    125  O         43.1840   50.8750  100.5790 O.2   185  TYR185     -0.2864
    126  CB        43.7840   53.6620  101.2440 C.3   185  TYR185      0.0560
    127  CG        44.2290   55.1040  101.0760 C.ar  185  TYR185     -0.0198
    128  CD1       44.1510   56.0210  102.1540 C.ar  185  TYR185     -0.0009
    129  CD2       44.7260   55.5600   99.8540 C.ar  185  TYR185     -0.0009
    130  CE1       44.5690   57.3520  102.0210 C.ar  185  TYR185      0.0417
    131  CE2       45.1470   56.8980   99.7010 C.ar  185  TYR185      0.0417
    132  CZ        45.0790   57.7870  100.8040 C.ar  185  TYR185      0.1957
    133  OH        45.4650   59.0770  100.6520 O.3   185  TYR185     -0.2866
    134  N         43.6710   47.8190   98.3450 N.3   188  GLN188     -0.1245
    135  CA        44.8630   48.4520   97.8020 C.3   188  GLN188      0.1566
    136  C         45.7460   47.3720   97.2170 C.2   188  GLN188      0.2260
    137  O         46.2890   46.5920   97.9510 O.2   188  GLN188     -0.2867
    138  CB        45.5730   49.1770   98.9610 C.3   188  GLN188      0.0367
    139  CG        46.3310   50.4050   98.6000 C.3   188  GLN188      0.0905
    140  CD        46.6810   51.2530   99.8190 C.2   188  GLN188      0.2608
    141  OE1       46.3610   52.4190   99.8450 O.2   188  GLN188     -0.2717
    142  NE2       47.3070   50.6710  100.8200 N.am  188  GLN188     -0.0878
    143  N         44.0960   62.7550   99.2810 N.3   196  ILE196     -0.1245
    144  CA        43.6080   63.8190  100.1780 C.3   196  ILE196      0.1561
    145  C         42.7400   64.9040   99.5180 C.2   196  ILE196      0.2260
    146  O         41.9130   65.5270  100.1960 O.2   196  ILE196     -0.2867
    147  CB        44.7620   64.5260  100.9490 C.3   196  ILE196      0.0252
    148  CG1       44.1520   65.3630  102.0980 C.3   196  ILE196      0.0019
    149  CG2       45.6570   65.3640   99.9920 C.3   196  ILE196      0.0019
    150  CD1       45.0180   65.5120  103.2830 C.3   196  ILE196      0.0001
@<TRIPOS>BOND
     1   136   135    1
     2   136   137    2
     3   135   134    1
     4   135   138    1
     5   139   138    1
     6   139   140    1
     7   116   115    2
     8    86    85    1
     9   143   144    1
    10   145   144    1
    11   145   146    2
    12   131   129   ar
    13   131   132   ar
    14   115   114    1
    15   115   122   am
    16   140   141    2
    17   140   142   am
    18   129   127   ar
    19    87    85    1
    20   149   147    1
    21   144   147    1
    22   114   117    1
    23   114   113    1
    24   123   124    1
    25   123   122    1
    26   123   126    1
    27    85    82    1
    28   117   118    1
    29   124   125    2
    30   110   109    2
    31   133   132    1
    32   132   130   ar
    33   147   148    1
    34   118   119    1
    35    82    81    1
    36    82    83    1
    37   127   126    1
    38   127   128   ar
    39    76    75    2
    40   119   120    1
    41   113   109   am
    42   109   108    1
    43   120   121    1
    44    81    75   am
    45    75    74    1
    46    73    74    1
    47    83    84    2
    48   130   128   ar
    49   148   150    1
    50   103   102    2
    51    74    77    1
    52   102   107   am
    53   102   101    1
    54   108   107    1
    55   108   111    1
    56   100   101    1
    57   101   104    1
    58   111   112    1
    59    72    70   ar
    60    72    71   ar
    61    99    98    1
    62    70    68   ar
    63    77    78    1
    64    77    79    1
    65    97    98   ar
    66    97    95   ar
    67    71    69   ar
    68   104   106    1
    69   104   105    1
    70    98    96   ar
    71    78    80    1
    72    68    67   ar
    73    95    93   ar
    74    69    67   ar
    75    91    90    2
    76    67    66    1
    77    64    65    2
    78    64    63    1
    79    96    94   ar
    80    90    89    1
    81    12    11    1
    82    93    94   ar
    83    93    92    1
    84    13    14    1
    85    63    66    1
    86    63    62    1
    87    14    15    1
    88    14    17    1
    89    11    10   ar
    90    11     9   ar
    91    10     8   ar
    92    15    16    2
    93     9     7   ar
    94    92    89    1
    95    17    18    1
    96    89    88    1
    97     8     6   ar
    98    27    24    1
    99     7     6   ar
   100     6     5    1
   101    53    51    1
   102    52    50    1
   103     5     2    1
   104    18    19   ar
   105    18    20   ar
   106    60    59   ar
   107    28    29    1
   108    28    25   am
   109    51    50    1
   110    24    23    1
   111    24    25    1
   112    29    30    1
   113    50    47    1
   114    35    34    2
   115    19    21   ar
   116    20    22   ar
   117    25    26    2
   118    47    48    1
   119    47    46    1
   120    57    56    2
   121    59    58    1
   122    59    61   ar
   123    58    55    1
   124    54    48   am
   125    54    55    1
   126    30    31    2
   127    30    32   am
   128     2     3    1
   129     2     1    1
   130    34    46   am
   131    34    33    1
   132    48    49    2
   133    32    33    1
   134    21    22   ar
   135    55    56    1
   136     3     4    2
   137    33    36    1
   138    36    37    1
   139    38    37   ar
   140    38    40   ar
   141    37    39   ar
   142    40    41   ar
   143    39    41   ar
   144    39    42   ar
   145    41    43   ar
   146    42    44   ar
   147    44    45   ar
   148    43    45   ar
