@<TRIPOS>MOLECULE
tmp/2hxhB02.pdb
 218 207 0 0 0
SMALL
GASTEIGER

@<TRIPOS>ATOM
      1  N         41.2080   22.6390   79.4660 N.3    21  GLU21      -0.1231
      2  CA        40.7350   21.2710   79.5820 C.3    21  GLU21       0.1699
      3  C         40.2730   20.9400   78.1780 C.2    21  GLU21       0.2592
      4  O         40.7390   19.9870   77.5630 O.2    21  GLU21      -0.2718
      5  CB        39.5310   21.1950   80.5270 C.3    21  GLU21       0.0402
      6  CG        39.7570   20.3770   81.8000 C.3    21  GLU21       0.1161
      7  CD        38.5390   20.3250   82.7240 C.2    21  GLU21       0.3649
      8  OE1       37.4830   19.7940   82.3030 O.co2  21  GLU21      -0.2457
      9  OE2       38.6490   20.8120   83.8730 O.co2  21  GLU21      -0.2457
     10  N         39.3540   21.7640   77.6820 N.am   22  VAL22      -0.1980
     11  CA        38.7830   21.6120   76.3490 C.3    22  VAL22       0.1595
     12  C         39.8530   21.6640   75.2720 C.2    22  VAL22       0.2287
     13  O         40.3890   20.6470   74.8430 O.2    22  VAL22      -0.2864
     14  CB        37.7810   22.7410   76.0510 C.3    22  VAL22       0.0276
     15  CG1       37.1330   22.5110   74.7040 C.3    22  VAL22       0.0022
     16  CG2       36.7490   22.8280   77.1420 C.3    22  VAL22       0.0022
     17  N         42.0370   18.7780   74.2780 N.3    25  ASP25      -0.1225
     18  CA        41.3500   17.6440   73.6520 C.3    25  ASP25       0.1805
     19  C         41.0010   17.9970   72.2060 C.2    25  ASP25       0.2597
     20  O         40.9440   17.1250   71.3360 O.2    25  ASP25      -0.2718
     21  CB        40.0810   17.3030   74.4540 C.3    25  ASP25       0.1424
     22  CG        38.9520   16.7540   73.5890 C.2    25  ASP25       0.3668
     23  OD1       38.4630   17.4810   72.6980 O.co2  25  ASP25      -0.2456
     24  OD2       38.5420   15.5940   73.8040 O.co2  25  ASP25      -0.2456
     25  N         40.7650   19.2870   71.9660 N.am   26  GLU26      -0.1979
     26  CA        40.4480   19.8090   70.6380 C.3    26  GLU26       0.1602
     27  C         41.7910   20.0400   69.9450 C.2    26  GLU26       0.2287
     28  O         41.9010   20.7960   68.9830 O.2    26  GLU26      -0.2864
     29  CB        39.6760   21.1330   70.7620 C.3    26  GLU26       0.0415
     30  CG        39.3140   21.8040   69.4310 C.3    26  GLU26       0.1163
     31  CD        38.7770   23.2250   69.5960 C.2    26  GLU26       0.3649
     32  OE1       39.4150   24.0250   70.3150 O.co2  26  GLU26      -0.2457
     33  OE2       37.7240   23.5430   68.9970 O.co2  26  GLU26      -0.2457
     34  N         44.6690   18.5470   84.4080 N.3    80  PHE80      -0.1241
     35  CA        45.6490   19.1560   83.5070 C.3    80  PHE80       0.1605
     36  C         46.5700   20.1640   84.1890 C.2    80  PHE80       0.2264
     37  O         47.4480   20.7430   83.5500 O.2    80  PHE80      -0.2867
     38  CB        44.9310   19.8490   82.3420 C.3    80  PHE80       0.0534
     39  CG        44.0810   18.9260   81.5130 C.ar   80  PHE80      -0.0203
     40  CD1       42.9250   18.3590   82.0400 C.ar   80  PHE80      -0.0042
     41  CD2       44.4400   18.6180   80.2040 C.ar   80  PHE80      -0.0042
     42  CE1       42.1300   17.4940   81.2690 C.ar   80  PHE80      -0.0003
     43  CE2       43.6540   17.7560   79.4270 C.ar   80  PHE80      -0.0003
     44  CZ        42.4990   17.1930   79.9620 C.ar   80  PHE80      -0.0000
     45  N         21.7850   26.5740   80.8080 N.3   210  CYS210     -0.1235
     46  CA        22.3760   25.2960   81.1770 C.3   210  CYS210      0.1677
     47  C         21.4260   24.3890   81.9370 C.2   210  CYS210      0.2270
     48  O         21.6850   23.1960   82.0760 O.2   210  CYS210     -0.2867
     49  CB        23.6280   25.5450   82.0180 C.3   210  CYS210      0.0956
     50  SG        24.5630   24.0740   82.4430 S.3   210  CYS210     -0.0801
     51  N         19.7630   22.4440   78.5550 N.3   214  LEU214     -0.1245
     52  CA        20.4860   21.2300   78.9160 C.3   214  LEU214      0.1561
     53  C         19.6880   20.9180   80.1580 C.2   214  LEU214      0.2260
     54  O         19.8610   21.5750   81.1750 O.2   214  LEU214     -0.2867
     55  CB        21.9340   21.5050   79.3320 C.3   214  LEU214      0.0270
     56  CG        23.0820   21.5240   78.3130 C.3   214  LEU214      0.0019
     57  CD1       22.8580   22.6330   77.3030 C.3   214  LEU214      0.0001
     58  CD2       24.4140   21.7290   79.0340 C.3   214  LEU214      0.0001
     59  N         20.0900   19.7270   82.3780 N.3   216  LEU216     -0.1245
     60  CA        21.0340   19.6150   83.4890 C.3   216  LEU216      0.1561
     61  C         20.4580   20.2010   84.7880 C.2   216  LEU216      0.2260
     62  O         20.2130   21.4060   84.8900 O.2   216  LEU216     -0.2867
     63  CB        22.3400   20.3220   83.1010 C.3   216  LEU216      0.0270
     64  CG        23.6240   20.0880   83.9050 C.3   216  LEU216      0.0019
     65  CD1       23.8690   18.6020   84.0940 C.3   216  LEU216      0.0001
     66  CD2       24.7840   20.7240   83.1690 C.3   216  LEU216      0.0001
     67  N         30.7960   23.1320   85.0180 N.3   223  ASP223     -0.1239
     68  CA        29.9500   23.1280   83.8410 C.3   223  ASP223      0.1674
     69  C         29.9620   24.4990   83.2040 C.2   223  ASP223      0.2266
     70  O         30.5410   24.6740   82.1400 O.2   223  ASP223     -0.2867
     71  CB        28.5210   22.7260   84.2200 C.3   223  ASP223      0.1410
     72  CG        28.4630   21.3980   84.9600 C.2   223  ASP223      0.3668
     73  OD1       27.3800   20.7850   84.9950 O.co2 223  ASP223     -0.2456
     74  OD2       29.4930   20.9680   85.5160 O.co2 223  ASP223     -0.2456
     75  N         32.8550   25.1600   81.6010 N.3   226  HIS226     -0.1226
     76  CA        32.9450   24.2860   80.4580 C.3   226  HIS226      0.1752
     77  C         32.1830   24.8180   79.2380 C.2   226  HIS226      0.2595
     78  O         32.6890   24.7900   78.1180 O.2   226  HIS226     -0.2718
     79  CB        32.4250   22.9130   80.8430 C.3   226  HIS226      0.0759
     80  CG        32.3400   21.9740   79.6880 C.ar  226  HIS226      0.0818
     81  ND1       31.8140   22.3450   78.4690 N.ar  226  HIS226     -0.2268
     82  CD2       32.6790   20.6680   79.5710 C.ar  226  HIS226      0.1154
     83  CE1       31.8280   21.3090   77.6510 C.ar  226  HIS226      0.1986
     84  NE2       32.3470   20.2790   78.2950 N.ar  226  HIS226     -0.2212
     85  N         30.9610   25.2830   79.4590 N.am  227  LEU227     -0.1980
     86  CA        30.1550   25.8220   78.3750 C.3   227  LEU227      0.1596
     87  C         30.8400   27.0370   77.7510 C.2   227  LEU227      0.2287
     88  O         30.9660   27.1380   76.5210 O.2   227  LEU227     -0.2864
     89  CB        28.7570   26.2030   78.8960 C.3   227  LEU227      0.0297
     90  CG        28.1240   27.3810   78.1530 C.3   227  LEU227      0.0022
     91  CD1       26.5950   27.2990   78.1030 C.3   227  LEU227      0.0001
     92  CD2       28.4430   28.7330   78.7950 C.3   227  LEU227      0.0001
     93  N         33.7700   26.5040   75.7350 N.3   230  ALA230     -0.1245
     94  CA        33.3060   25.8800   74.4870 C.3   230  ALA230      0.1562
     95  C         33.1980   26.9290   73.3770 C.2   230  ALA230      0.2260
     96  O         33.4660   26.6440   72.2010 O.2   230  ALA230     -0.2867
     97  CB        31.9300   25.2440   74.6980 C.3   230  ALA230      0.0290
     98  N         36.6030   28.5880   72.2180 N.3   233  SER233     -0.1202
     99  CA        37.3430   27.6180   71.3900 C.3   233  SER233      0.2020
    100  C         36.8820   27.7390   69.9350 C.2   233  SER233      0.2619
    101  O         37.6760   27.5860   68.9960 O.2   233  SER233     -0.2717
    102  CB        37.1000   26.1890   71.8810 C.3   233  SER233      0.2103
    103  OG        35.8510   26.1050   72.5440 O.3   233  SER233     -0.2182
    104  N         35.5980   28.0140   69.8020 N.am  234  GLY234     -0.1956
    105  CA        34.9540   28.1930   68.4950 C.3   234  GLY234      0.1869
    106  C         35.4770   29.4720   67.8440 C.2   234  GLY234      0.2309
    107  O         35.6940   29.5240   66.6240 O.2   234  GLY234     -0.2863
    108  N         26.7890   29.3840   71.5700 N.3   269  PHE269     -0.1241
    109  CA        27.2120   28.1550   70.9130 C.3   269  PHE269      0.1605
    110  C         26.0530   27.6010   70.0950 C.2   269  PHE269      0.2264
    111  O         24.8980   27.9900   70.3060 O.2   269  PHE269     -0.2867
    112  CB        27.6300   27.1220   71.9460 C.3   269  PHE269      0.0534
    113  CG        28.4590   26.0070   71.3830 C.ar  269  PHE269     -0.0203
    114  CD1       29.7660   26.2400   70.9780 C.ar  269  PHE269     -0.0042
    115  CD2       27.9440   24.7220   71.2680 C.ar  269  PHE269     -0.0042
    116  CE1       30.5490   25.2050   70.4740 C.ar  269  PHE269     -0.0003
    117  CE2       28.7190   23.6820   70.7670 C.ar  269  PHE269     -0.0003
    118  CZ        30.0220   23.9230   70.3680 C.ar  269  PHE269     -0.0000
    119  N         25.1470   23.6730   68.5940 N.3   271  PRO271     -0.2102
    120  CA        24.4100   22.5320   69.1260 C.3   271  PRO271      0.1504
    121  C         24.4080   22.5380   70.6300 C.2   271  PRO271      0.2576
    122  O         25.4010   22.1800   71.2530 O.2   271  PRO271     -0.2718
    123  CB        25.1970   21.3450   68.5580 C.3   271  PRO271      0.0282
    124  CG        26.0230   21.9760   67.4200 C.3   271  PRO271      0.0208
    125  CD        26.4450   23.2030   68.1010 C.3   271  PRO271      0.0893
    126  N         23.3050   22.9610   71.2240 N.am  272  LEU272     -0.1966
    127  CA        23.2330   22.9620   72.6600 C.3   272  LEU272      0.1728
    128  C         22.0340   22.1310   73.0630 C.2   272  LEU272      0.2617
    129  O         21.0240   22.6300   73.5620 O.2   272  LEU272     -0.2715
    130  CB        23.1270   24.4020   73.1770 C.3   272  LEU272      0.0311
    131  CG        24.2130   24.8280   74.1620 C.3   272  LEU272      0.0022
    132  CD1       25.3120   23.7780   74.2440 C.3   272  LEU272      0.0001
    133  CD2       24.7780   26.1500   73.7030 C.3   272  LEU272      0.0001
    134  N         22.1420   20.8270   72.8270 N.am  273  THR273     -0.1937
    135  CA        21.0610   19.8960   73.1350 C.3   273  THR273      0.2028
    136  C         21.4230   18.9730   74.3050 C.2   273  THR273      0.2643
    137  O         22.5800   18.5870   74.4630 O.2   273  THR273     -0.2714
    138  CB        20.7210   19.0370   71.8700 C.3   273  THR273      0.1808
    139  OG1       21.8220   18.1770   71.5640 O.3   273  THR273     -0.2208
    140  CG2       20.4550   19.9300   70.6520 C.3   273  THR273      0.0379
    141  N         20.4380   18.6190   75.1220 N.am  274  SER274     -0.1935
    142  CA        20.6520   17.7300   76.2630 C.3   274  SER274      0.2055
    143  C         21.2090   16.4020   75.7760 C.2   274  SER274      0.2642
    144  O         20.9220   15.9990   74.6420 O.2   274  SER274     -0.2714
    145  CB        19.3300   17.5210   77.0080 C.3   274  SER274      0.2130
    146  OG        18.2930   17.1360   76.1280 O.3   274  SER274     -0.2179
    147  N         21.9700   15.7070   76.6110 N.am  275  ARG275     -0.1977
    148  CA        22.5970   14.4530   76.1840 C.3   275  ARG275      0.1597
    149  C         21.7640   13.4290   75.4070 C.2   275  ARG275      0.2287
    150  O         21.4740   13.6300   74.2280 O.2   275  ARG275     -0.2864
    151  CB        23.2690   13.7640   77.3640 C.3   275  ARG275      0.0334
    152  CG        24.2320   12.6840   76.8740 C.3   275  ARG275      0.0492
    153  CD        24.1410   11.3490   77.6350 C.3   275  ARG275      0.2205
    154  NE        24.9450   10.3280   76.9660 N.pl3 275  ARG275     -0.0865
    155  CZ        25.4240    9.2350   77.5400 C.cat 275  ARG275      0.5346
    156  NH1       25.1850    8.9870   78.8280 N.pl3 275  ARG275      0.1354
    157  NH2       26.1730    8.4100   76.8160 N.pl3 275  ARG275      0.1354
    158  N         19.3380   14.5530   71.4320 N.3   279  GLN279     -0.1245
    159  CA        20.2860   14.1880   70.3610 C.3   279  GLN279      0.1566
    160  C         19.4550   13.9340   69.1120 C.2   279  GLN279      0.2260
    161  O         19.4270   12.8470   68.5300 O.2   279  GLN279     -0.2867
    162  CB        21.1130   12.9510   70.8150 C.3   279  GLN279      0.0367
    163  CG        21.6200   11.9810   69.7400 C.3   279  GLN279      0.0905
    164  CD        21.2060   10.5450   70.0330 C.2   279  GLN279      0.2608
    165  OE1       21.3970    9.6390   69.2110 O.2   279  GLN279     -0.2717
    166  NE2       20.6340   10.3250   71.2140 N.am  279  GLN279     -0.0878
    167  N         19.8500   15.7190   66.3470 N.3   281  ARG281     -0.1245
    168  CA        20.6330   15.8760   65.1380 C.3   281  ARG281      0.1563
    169  C         20.0160   16.9180   64.2470 C.2   281  ARG281      0.2260
    170  O         20.5190   17.1330   63.1590 O.2   281  ARG281     -0.2867
    171  CB        20.6970   14.5750   64.3300 C.3   281  ARG281      0.0307
    172  CG        20.5820   13.3280   65.1730 C.3   281  ARG281      0.0489
    173  CD        21.9310   12.8000   65.6250 C.3   281  ARG281      0.2205
    174  NE        22.0390   11.3770   65.3290 N.pl3 281  ARG281     -0.0865
    175  CZ        23.0280   10.5800   65.7030 C.cat 281  ARG281      0.5346
    176  NH1       24.0560   11.0400   66.4190 N.pl3 281  ARG281      0.1354
    177  NH2       22.9610    9.2980   65.3630 N.pl3 281  ARG281      0.1354
    178  N         31.7710   25.8380   62.1630 N.3   317  ARG317     -0.1245
    179  CA        32.9270   24.9480   62.0240 C.3   317  ARG317      0.1563
    180  C         32.4820   23.4990   61.8610 C.2   317  ARG317      0.2260
    181  O         32.4760   22.7320   62.8150 O.2   317  ARG317     -0.2867
    182  CB        33.8740   25.0940   63.2330 C.3   317  ARG317      0.0307
    183  CG        33.3230   24.6480   64.5900 C.3   317  ARG317      0.0489
    184  CD        34.0960   25.2640   65.7710 C.3   317  ARG317      0.2205
    185  NE        35.5420   25.0290   65.7250 N.pl3 317  ARG317     -0.0865
    186  CZ        36.1490   23.8970   66.0740 C.cat 317  ARG317      0.5346
    187  NH1       35.4460   22.8650   66.5080 N.pl3 317  ARG317      0.1354
    188  NH2       37.4670   23.7910   65.9890 N.pl3 317  ARG317      0.1354
    189  N         33.7110   20.5980   66.1900 N.3   357  PRO357     -0.2102
    190  CA        34.1400   20.2580   67.5450 C.3   357  PRO357      0.1504
    191  C         34.3010   18.7490   67.6440 C.2   357  PRO357      0.2576
    192  O         33.3300   18.0020   67.5630 O.2   357  PRO357     -0.2718
    193  CB        33.0050   20.7980   68.4100 C.3   357  PRO357      0.0282
    194  CG        31.8350   20.7660   67.5060 C.3   357  PRO357      0.0208
    195  CD        32.4060   21.2690   66.2140 C.3   357  PRO357      0.0893
    196  N         35.5490   18.3250   67.8120 N.am  358  ARG358     -0.1966
    197  CA        35.9180   16.9170   67.9020 C.3   358  ARG358      0.1729
    198  C         34.7760   15.9230   67.7260 C.2   358  ARG358      0.2617
    199  O         34.6300   15.3370   66.6560 O.2   358  ARG358     -0.2715
    200  CB        36.6430   16.6280   69.2250 C.3   358  ARG358      0.0348
    201  CG        37.7070   15.5160   69.1300 C.3   358  ARG358      0.0492
    202  CD        37.1990   14.2940   68.3410 C.3   358  ARG358      0.2205
    203  NE        37.7620   13.0200   68.8010 N.pl3 358  ARG358     -0.0865
    204  CZ        37.3400   11.8160   68.4050 C.cat 358  ARG358      0.5346
    205  NH1       36.3450   11.7050   67.5310 N.pl3 358  ARG358      0.1354
    206  NH2       37.9000   10.7180   68.9030 N.pl3 358  ARG358      0.1354
    207  N         33.9620   15.7370   68.7600 N.am  359  GLY359     -0.1940
    208  CA        32.8850   14.7600   68.6730 C.3   359  GLY359      0.2014
    209  C         31.5700   15.1110   67.9960 C.2   359  GLY359      0.2638
    210  O         30.6830   14.2660   67.8810 O.2   359  GLY359     -0.2714
    211  N         31.4460   16.3410   67.5210 N.am  360  LEU360     -0.1977
    212  CA        30.2050   16.7800   66.9020 C.3   360  LEU360      0.1596
    213  C         30.2780   16.8490   65.3750 C.2   360  LEU360      0.2287
    214  O         31.3670   16.8790   64.7970 O.2   360  LEU360     -0.2864
    215  CB        29.8360   18.1440   67.4910 C.3   360  LEU360      0.0297
    216  CG        28.4110   18.6800   67.4460 C.3   360  LEU360      0.0022
    217  CD1       27.4260   17.6530   68.0160 C.3   360  LEU360      0.0001
    218  CD2       28.3770   19.9640   68.2440 C.3   360  LEU360      0.0001
@<TRIPOS>BOND
     1   180   179    1
     2   180   181    2
     3   179   178    1
     4   179   182    1
     5   170   169    2
     6   182   183    1
     7   169   168    1
     8   171   168    1
     9   171   172    1
    10   183   184    1
    11   214   213    2
    12   168   167    1
    13   172   173    1
    14   174   173    1
    15   174   175    2
    16   177   175    1
    17   213   212    1
    18   175   176    1
    19   185   184    1
    20   185   186    2
    21   188   186    1
    22   186   187    1
    23   189   195    1
    24   189   190    1
    25   195   194    1
    26   107   106    2
    27   199   198    2
    28   212   215    1
    29   212   211    1
    30   124   125    1
    31   124   123    1
    32   216   215    1
    33   216   217    1
    34   216   218    1
    35   194   193    1
    36   211   209   am
    37   205   204    1
    38   190   191    1
    39   190   193    1
    40   192   191    2
    41   191   196   am
    42   198   197    1
    43   198   207   am
    44   196   197    1
    45   106   105    1
    46   210   209    2
    47   197   200    1
    48   209   208    1
    49   125   119    1
    50   202   203    1
    51   202   201    1
    52   204   203    2
    53   204   206    1
    54   105   104    1
    55   161   160    2
    56   123   120    1
    57   119   120    1
    58   208   207    1
    59    28    27    2
    60   101   100    2
    61    33    31   ar
    62   160   159    1
    63   120   121    1
    64   201   200    1
    65   165   164    2
    66    30    31    1
    67    30    29    1
    68    31    32   ar
    69   163   164    1
    70   163   162    1
    71   104   100   am
    72   100    99    1
    73    27    26    1
    74   164   166   am
    75   110   111    2
    76   110   109    1
    77   159   162    1
    78   159   158    1
    79   118   116   ar
    80   118   117   ar
    81   116   114   ar
    82   121   126   am
    83   121   122    2
    84    26    29    1
    85    26    25    1
    86   140   138    1
    87   117   115   ar
    88   109   108    1
    89   109   112    1
    90   114   113   ar
    91   126   127    1
    92   115   113   ar
    93    20    19    2
    94   113   112    1
    95    99   102    1
    96    99    98    1
    97   139   138    1
    98   138   135    1
    99   102   103    1
   100    25    19   am
   101    96    95    2
   102    19    18    1
   103   127   128    1
   104   127   130    1
   105    23    22   ar
   106   134   128   am
   107   134   135    1
   108   128   129    2
   109   135   136    1
   110   130   131    1
   111    95    94    1
   112    22    24   ar
   113    22    21    1
   114    18    17    1
   115    18    21    1
   116   133   131    1
   117   131   132    1
   118   150   149    2
   119   136   137    2
   120   136   141   am
   121    94    97    1
   122    94    93    1
   123   144   143    2
   124    15    14    1
   125    13    12    2
   126   141   142    1
   127    12    11    1
   128   149   148    1
   129   143   142    1
   130   143   147   am
   131    14    11    1
   132    14    16    1
   133   146   145    1
   134   148   147    1
   135   148   151    1
   136   142   145    1
   137    11    10    1
   138    88    87    2
   139   157   155    1
   140   152   151    1
   141   152   153    1
   142   154   155    2
   143   154   153    1
   144    57    56    1
   145   155   156    1
   146     4     3    2
   147    83    84   ar
   148    83    81   ar
   149    10     3   am
   150    87    86    1
   151    91    90    1
   152    78    77    2
   153    90    92    1
   154    90    89    1
   155     3     2    1
   156    84    82   ar
   157    56    58    1
   158    56    55    1
   159    86    89    1
   160    86    85    1
   161    81    80   ar
   162    51    52    1
   163    52    55    1
   164    52    53    1
   165    77    85   am
   166    77    76    1
   167    43    44   ar
   168    43    41   ar
   169     1     2    1
   170    82    80   ar
   171     2     5    1
   172    80    79    1
   173    44    42   ar
   174    53    54    2
   175    41    39   ar
   176    76    79    1
   177    76    75    1
   178     5     6    1
   179    45    46    1
   180    46    47    1
   181    46    49    1
   182    42    40   ar
   183    39    40   ar
   184    39    38    1
   185     6     7    1
   186    47    48    2
   187    49    50    1
   188    70    69    2
   189     8     7   ar
   190    38    35    1
   191    59    60    1
   192     7     9   ar
   193    63    60    1
   194    63    64    1
   195    66    64    1
   196    69    68    1
   197    60    61    1
   198    35    36    1
   199    35    34    1
   200    37    36    2
   201    68    71    1
   202    68    67    1
   203    64    65    1
   204    71    72    1
   205    61    62    2
   206    72    73   ar
   207    72    74   ar
