@<TRIPOS>MOLECULE
tmp/2hxlA00.pdb
 153 144 0 0 0
SMALL
GASTEIGER

@<TRIPOS>ATOM
      1  N         18.3650   -6.4470   -0.1870 N.3    12  GLN12      -0.1231
      2  CA        19.0840   -7.2630    0.7830 C.3    12  GLN12       0.1698
      3  C         18.3260   -7.4500    2.0900 C.2    12  GLN12       0.2593
      4  O         17.2600   -6.8700    2.2970 O.2    12  GLN12      -0.2718
      5  CB        20.4440   -6.6340    1.0880 C.3    12  GLN12       0.0381
      6  CG        20.3530   -5.3170    1.8340 C.3    12  GLN12       0.0905
      7  CD        21.7130   -4.7550    2.2020 C.2    12  GLN12       0.2608
      8  OE1       22.5350   -5.4390    2.8130 O.2    12  GLN12      -0.2717
      9  NE2       21.9550   -3.5000    1.8380 N.am   12  GLN12      -0.0878
     10  N         18.8930   -8.2680    2.9690 N.am   13  THR13      -0.1939
     11  CA        18.2960   -8.5360    4.2700 C.3    13  THR13       0.2028
     12  C         18.9760   -7.6630    5.3160 C.2    13  THR13       0.2642
     13  O         20.1820   -7.7590    5.5340 O.2    13  THR13      -0.2714
     14  CB        18.4540  -10.0190    4.6610 C.3    13  THR13       0.1808
     15  OG1       17.7310  -10.8370    3.7300 O.3    13  THR13      -0.2208
     16  CG2       17.9190  -10.2610    6.0640 C.3    13  THR13       0.0379
     17  N         18.1890   -6.8060    5.9540 N.am   14  LEU14      -0.1963
     18  CA        18.6970   -5.8940    6.9690 C.3    14  LEU14       0.1728
     19  C         18.8730   -6.5490    8.3360 C.2    14  LEU14       0.2616
     20  O         19.7890   -6.2070    9.0840 O.2    14  LEU14      -0.2715
     21  CB        17.7590   -4.6920    7.0910 C.3    14  LEU14       0.0311
     22  CG        17.6220   -3.8660    5.8110 C.3    14  LEU14       0.0022
     23  CD1       16.6410   -2.7270    6.0290 C.3    14  LEU14       0.0001
     24  CD2       18.9900   -3.3360    5.4120 C.3    14  LEU14       0.0001
     25  N         17.9920   -7.4870    8.6620 N.am   15  GLY15      -0.1955
     26  CA        18.0830   -8.1590    9.9420 C.3    15  GLY15       0.1869
     27  C         16.9570   -9.1520   10.1300 C.2    15  GLY15       0.2309
     28  O         15.8040   -8.8650    9.8150 O.2    15  GLY15      -0.2863
     29  N         13.4360   -8.2680    8.1970 N.3    22  VAL22      -0.1245
     30  CA        13.2920   -6.9370    7.6330 C.3    22  VAL22       0.1561
     31  C         14.2530   -6.8500    6.4610 C.2    22  VAL22       0.2260
     32  O         15.4240   -7.1980    6.5900 O.2    22  VAL22      -0.2867
     33  CB        13.6520   -5.8460    8.6680 C.3    22  VAL22       0.0252
     34  CG1       13.5040   -4.4650    8.0490 C.3    22  VAL22       0.0019
     35  CG2       12.7550   -5.9750    9.8850 C.3    22  VAL22       0.0019
     36  N         12.4420    0.2510    4.5630 N.3    35  ALA35      -0.1245
     37  CA        12.6360   -1.0520    5.1730 C.3    35  ALA35       0.1562
     38  C         11.2770   -1.7330    5.2080 C.2    35  ALA35       0.2260
     39  O         10.2660   -1.1040    5.5150 O.2    35  ALA35      -0.2867
     40  CB        13.1910   -0.9020    6.5800 C.3    35  ALA35       0.0290
     41  N          9.2560   -4.7500    6.9560 N.3    37  LYS37      -0.1245
     42  CA         9.2150   -5.7740    7.9820 C.3    37  LYS37       0.1561
     43  C          8.2050   -6.8070    7.5240 C.2    37  LYS37       0.2260
     44  O          7.0200   -6.5120    7.3800 O.2    37  LYS37      -0.2867
     45  CB         8.7980   -5.1840    9.3320 C.3    37  LYS37       0.0271
     46  CG         8.8710   -6.1800   10.4820 C.3    37  LYS37       0.0035
     47  CD         8.5960   -5.5200   11.8250 C.3    37  LYS37       0.0206
     48  CE         8.7560   -6.5160   12.9660 C.3    37  LYS37       0.1093
     49  NZ         8.5600   -5.8870   14.3040 N.3    37  LYS37      -0.1314
     50  N          0.8510   -3.6500   16.7430 N.3    51  GLU51      -0.1245
     51  CA         2.0320   -2.9380   16.2640 C.3    51  GLU51       0.1567
     52  C          1.6840   -1.9370   15.1640 C.2    51  GLU51       0.2260
     53  O          2.2220   -0.8300   15.1260 O.2    51  GLU51      -0.2867
     54  CB         3.0760   -3.9190   15.7330 C.3    51  GLU51       0.0388
     55  CG         4.4310   -3.2730   15.4720 C.3    51  GLU51       0.1160
     56  CD         5.4940   -4.2660   15.0320 C.2    51  GLU51       0.3649
     57  OE1        5.4170   -5.4450   15.4310 O.co2  51  GLU51      -0.2457
     58  OE2        6.4200   -3.8610   14.3000 O.co2  51  GLU51      -0.2457
     59  N         11.1410    5.8930   14.1490 N.3    64  VAL64      -0.1245
     60  CA        11.0790    5.3420   12.8020 C.3    64  VAL64       0.1561
     61  C          9.6940    5.5690   12.2040 C.2    64  VAL64       0.2260
     62  O          8.6780    5.1360   12.7510 O.2    64  VAL64      -0.2867
     63  CB        11.4270    3.8370   12.7980 C.3    64  VAL64       0.0252
     64  CG1       11.1000    3.2240   11.4430 C.3    64  VAL64       0.0019
     65  CG2       12.9140    3.6520   13.1050 C.3    64  VAL64       0.0019
     66  N          8.3930    0.7620    6.4960 N.3    80  LEU80      -0.1231
     67  CA         8.9680    1.6890    7.4600 C.3    80  LEU80       0.1693
     68  C         10.1560    2.4820    6.9420 C.2    80  LEU80       0.2592
     69  O         10.7390    2.1610    5.9090 O.2    80  LEU80      -0.2718
     70  CB         9.4100    0.9070    8.6940 C.3    80  LEU80       0.0284
     71  CG         8.3540   -0.0120    9.3110 C.3    80  LEU80       0.0019
     72  CD1        9.0370   -1.1110   10.1080 C.3    80  LEU80       0.0001
     73  CD2        7.4130    0.8080   10.1780 C.3    80  LEU80       0.0001
     74  N         10.5200    3.5110    7.6950 N.am   81  GLU81      -0.1966
     75  CA        11.6450    4.3640    7.3510 C.3    81  GLU81       0.1733
     76  C         12.9360    3.5520    7.3410 C.2    81  GLU81       0.2616
     77  O         13.1910    2.7850    8.2690 O.2    81  GLU81      -0.2715
     78  CB        11.7660    5.4930    8.3770 C.3    81  GLU81       0.0429
     79  CG        12.9330    6.4390    8.1440 C.3    81  GLU81       0.1163
     80  CD        13.0060    7.5350    9.1880 C.2    81  GLU81       0.3649
     81  OE1       13.9260    8.3790    9.1080 O.co2  81  GLU81      -0.2457
     82  OE2       12.1430    7.5510   10.0920 O.co2  81  GLU81      -0.2457
     83  N         13.7390    3.7100    6.2920 N.am   82  TYR82      -0.1960
     84  CA        15.0170    3.0110    6.2060 C.3    82  TYR82       0.1771
     85  C         16.0890    3.8770    6.8590 C.2    82  TYR82       0.2620
     86  O         16.2730    5.0380    6.4890 O.2    82  TYR82      -0.2715
     87  CB        15.4110    2.7460    4.7480 C.3    82  TYR82       0.0574
     88  CG        16.8260    2.2220    4.6000 C.ar   82  TYR82      -0.0198
     89  CD1       17.2220    1.0390    5.2200 C.ar   82  TYR82      -0.0009
     90  CD2       17.7690    2.9140    3.8520 C.ar   82  TYR82      -0.0009
     91  CE1       18.5210    0.5650    5.0950 C.ar   82  TYR82       0.0417
     92  CE2       19.0660    2.4510    3.7210 C.ar   82  TYR82       0.0417
     93  CZ        19.4380    1.2780    4.3450 C.ar   82  TYR82       0.1957
     94  OH        20.7350    0.8320    4.2290 O.3    82  TYR82      -0.2866
     95  N         16.7920    3.3090    7.8310 N.am   83  CYS83      -0.1954
     96  CA        17.8340    4.0350    8.5400 C.3    83  CYS83       0.1843
     97  C         19.1920    3.4930    8.1150 C.2    83  CYS83       0.2626
     98  O         19.6560    2.4670    8.6090 O.2    83  CYS83      -0.2714
     99  CB        17.6270    3.8990   10.0580 C.3    83  CYS83       0.0997
    100  SG        16.0050    4.5170   10.6410 S.3    83  CYS83      -0.0797
    101  N         19.8060    4.2100    7.1780 N.am   84  SER84      -0.1936
    102  CA        21.1030    3.8790    6.5910 C.3    84  SER84       0.2055
    103  C         22.2450    3.5360    7.5460 C.2    84  SER84       0.2644
    104  O         23.0840    2.6900    7.2300 O.2    84  SER84      -0.2714
    105  CB        21.5460    5.0330    5.6890 C.3    84  SER84       0.2130
    106  OG        22.9140    4.9170    5.3500 O.3    84  SER84      -0.2179
    107  N         22.2800    4.1990    8.6990 N.am   85  GLY85      -0.1939
    108  CA        23.3390    3.9770    9.6730 C.3    85  GLY85       0.2014
    109  C         23.3200    2.6920   10.4840 C.2    85  GLY85       0.2639
    110  O         24.2830    2.3970   11.1890 O.2    85  GLY85      -0.2714
    111  N         22.2390    1.9280   10.4000 N.am   86  GLY86      -0.1939
    112  CA        22.1660    0.6840   11.1400 C.3    86  GLY86       0.2014
    113  C         21.7860    0.8790   12.5940 C.2    86  GLY86       0.2638
    114  O         21.2440    1.9130   12.9700 O.2    86  GLY86      -0.2714
    115  N         22.0840   -0.1250   13.4080 N.am   87  GLU87      -0.1977
    116  CA        21.7730   -0.1100   14.8300 C.3    87  GLU87       0.1602
    117  C         22.8210    0.5760   15.6850 C.2    87  GLU87       0.2287
    118  O         24.0120    0.5150   15.3980 O.2    87  GLU87      -0.2864
    119  CB        21.6200   -1.5380   15.3460 C.3    87  GLU87       0.0415
    120  CG        20.5820   -2.3630   14.6260 C.3    87  GLU87       0.1163
    121  CD        20.5260   -3.7790   15.1540 C.2    87  GLU87       0.3649
    122  OE1       19.7400   -4.5840   14.6090 O.co2  87  GLU87      -0.2457
    123  OE2       21.2670   -4.0820   16.1160 O.co2  87  GLU87      -0.2457
    124  N         25.8000   -1.4910   16.9830 N.3    90  ASP90      -0.1239
    125  CA        27.0590   -1.6000   16.2400 C.3    90  ASP90       0.1674
    126  C         28.0260   -0.4320   16.4060 C.2    90  ASP90       0.2266
    127  O         29.1750   -0.5160   15.9760 O.2    90  ASP90      -0.2867
    128  CB        26.7780   -1.8230   14.7530 C.3    90  ASP90       0.1410
    129  CG        26.2500   -3.2140   14.4640 C.2    90  ASP90       0.3668
    130  OD1       25.7660   -3.4430   13.3400 O.co2  90  ASP90      -0.2456
    131  OD2       26.3230   -4.0820   15.3570 O.co2  90  ASP90      -0.2456
    132  N         17.9430    2.9330   15.9230 N.3   133  LEU133     -0.1245
    133  CA        18.5910    3.0110   14.6180 C.3   133  LEU133      0.1561
    134  C         19.1420    4.3890   14.3150 C.2   133  LEU133      0.2260
    135  O         18.7650    5.3730   14.9420 O.2   133  LEU133     -0.2867
    136  CB        17.6040    2.5990   13.5250 C.3   133  LEU133      0.0270
    137  CG        16.8710    1.2900   13.8260 C.3   133  LEU133      0.0019
    138  CD1       15.9080    0.9770   12.6990 C.3   133  LEU133      0.0001
    139  CD2       17.8840    0.1630   14.0080 C.3   133  LEU133      0.0001
    140  N         12.8500    2.2700   17.1720 N.3   143  SER143     -0.1202
    141  CA        12.1420    1.3450   16.2930 C.3   143  SER143      0.2020
    142  C         11.6060    0.1060   16.9960 C.2   143  SER143      0.2618
    143  O         11.9830   -0.1980   18.1350 O.2   143  SER143     -0.2717
    144  CB        13.0470    0.8790   15.1500 C.3   143  SER143      0.2103
    145  OG        13.8880   -0.1740   15.5850 O.3   143  SER143     -0.2182
    146  N         10.7320   -0.5980   16.2770 N.am  144  ASP144     -0.1973
    147  CA        10.0930   -1.8350   16.7200 C.3   144  ASP144      0.1709
    148  C          9.0740   -1.6270   17.8290 C.2   144  ASP144      0.2293
    149  O          9.4120   -1.6490   19.0100 O.2   144  ASP144     -0.2864
    150  CB        11.1390   -2.8570   17.1790 C.3   144  ASP144      0.1436
    151  CG        10.5340   -4.2320   17.4240 C.2   144  ASP144      0.3671
    152  OD1       11.2670   -5.1550   17.8480 O.co2 144  ASP144     -0.2456
    153  OD2        9.3200   -4.3880   17.1880 O.co2 144  ASP144     -0.2456
@<TRIPOS>BOND
     1     1     2    1
     2     2     5    1
     3     2     3    1
     4     5     6    1
     5     6     7    1
     6     9     7   am
     7     3     4    2
     8     3    10   am
     9     7     8    2
    10    10    11    1
    11    92    90   ar
    12    92    93   ar
    13    15    14    1
    14    90    88   ar
    15    94    93    1
    16    11    14    1
    17    11    12    1
    18    93    91   ar
    19    36    37    1
    20    88    87    1
    21    88    89   ar
    22    14    16    1
    23    87    84    1
    24    91    89   ar
    25    37    38    1
    26    37    40    1
    27    38    39    2
    28    12    13    2
    29    12    17   am
    30   106   105    1
    31    24    22    1
    32   105   102    1
    33    22    23    1
    34    22    21    1
    35    69    68    2
    36    17    18    1
    37    84    83    1
    38    84    85    1
    39    83    76   am
    40    31    32    2
    41    31    30    1
    42    86    85    2
    43    66    67    1
    44   102   101    1
    45   102   103    1
    46    85    95   am
    47    68    67    1
    48    68    74   am
    49    41    42    1
    50    18    21    1
    51    18    19    1
    52   101    97   am
    53   104   103    2
    54    76    75    1
    55    76    77    2
    56    75    74    1
    57    75    78    1
    58    44    43    2
    59    67    70    1
    60    43    42    1
    61   103   107   am
    62    30    29    1
    63    30    33    1
    64    95    96    1
    65    42    45    1
    66    34    33    1
    67    97    96    1
    68    97    98    2
    69    79    78    1
    70    79    80    1
    71    19    25   am
    72    19    20    2
    73    96    99    1
    74    25    26    1
    75    33    35    1
    76    70    71    1
    77   107   108    1
    78    81    80   ar
    79    80    82   ar
    80    71    72    1
    81    71    73    1
    82    45    46    1
    83   108   109    1
    84    28    27    2
    85    26    27    1
    86    99   100    1
    87   111   109   am
    88   111   112    1
    89    46    47    1
    90   109   110    2
    91   112   113    1
    92    64    63    1
    93    47    48    1
    94    61    62    2
    95    61    60    1
    96   113   114    2
    97   113   115   am
    98   138   137    1
    99    63    60    1
   100    63    65    1
   101    60    59    1
   102    48    49    1
   103   130   129   ar
   104   115   116    1
   105   136   137    1
   106   136   133    1
   107   137   139    1
   108    58    56   ar
   109   134   133    1
   110   134   135    2
   111   129   128    1
   112   129   131   ar
   113   122   121   ar
   114   133   132    1
   115   120   121    1
   116   120   119    1
   117   128   125    1
   118   116   119    1
   119   116   117    1
   120    56    57   ar
   121    56    55    1
   122    53    52    2
   123   144   145    1
   124   144   141    1
   125   121   123   ar
   126    52    51    1
   127   118   117    2
   128    55    54    1
   129    54    51    1
   130   127   126    2
   131   125   126    1
   132   125   124    1
   133    51    50    1
   134   146   147    1
   135   146   142   am
   136   141   142    1
   137   141   140    1
   138   147   150    1
   139   147   148    1
   140   142   143    2
   141   150   151    1
   142   153   151   ar
   143   151   152   ar
   144   148   149    2
