@<TRIPOS>MOLECULE
tmp/2hxmA00.pdb
 163 163 0 0 0
SMALL
GASTEIGER

@<TRIPOS>ATOM
      1  N          6.2840    5.8360   -7.2440 N.3    62  GLY62      -0.1210
      2  CA         6.8370    4.8760   -6.2970 C.3    62  GLY62       0.1956
      3  C          8.3490    4.8320   -6.3590 C.2    62  GLY62       0.2612
      4  O          9.0050    5.6350   -7.0390 O.2    62  GLY62      -0.2717
      5  N          8.8980    3.8760   -5.6300 N.am   63  GLN63      -0.1965
      6  CA        10.3380    3.7430   -5.4840 C.3    63  GLN63       0.1733
      7  C         10.8290    2.4500   -6.1380 C.2    63  GLN63       0.2616
      8  O         11.2300    2.4650   -7.2960 O.2    63  GLN63      -0.2715
      9  CB        10.7320    3.8290   -4.0040 C.3    63  GLN63       0.0408
     10  CG        12.2260    3.9090   -3.7610 C.3    63  GLN63       0.0908
     11  CD        12.6020    4.3020   -2.3480 C.2    63  GLN63       0.2608
     12  OE1       11.7570    4.5930   -1.4970 O.2    63  GLN63      -0.2717
     13  NE2       13.8980    4.3110   -2.0940 N.am   63  GLN63      -0.0878
     14  N         10.7540    1.3430   -5.3980 N.am   64  ASP64      -0.1958
     15  CA        11.2860    0.0380   -5.7880 C.3    64  ASP64       0.1825
     16  C         10.1220   -0.9090   -6.1240 C.2    64  ASP64       0.2464
     17  O          9.0810   -0.8540   -5.4830 O.2    64  ASP64      -0.2730
     18  CB        12.0710   -0.5400   -4.5920 C.3    64  ASP64       0.1450
     19  CG        13.2860   -1.3600   -5.0030 C.2    64  ASP64       0.3671
     20  OD1       14.0180   -0.9460   -5.9210 O.co2  64  ASP64      -0.2456
     21  OD2       13.5270   -2.4140   -4.3720 O.co2  64  ASP64      -0.2456
     22  N         10.2840   -1.8060   -7.1110 N.am   65  PRO65      -0.2715
     23  CA         9.2420   -2.8230   -7.3150 C.3    65  PRO65       0.1536
     24  C          9.1920   -3.8150   -6.1580 C.2    65  PRO65       0.2598
     25  O         10.1730   -3.9910   -5.4480 O.2    65  PRO65      -0.2715
     26  CB         9.7050   -3.5650   -8.5750 C.3    65  PRO65       0.0310
     27  CG        10.7320   -2.6630   -9.2040 C.3    65  PRO65       0.0237
     28  CD        11.3960   -1.9850   -8.0600 C.3    65  PRO65       0.0939
     29  N          8.0540   -4.4720   -5.9710 N.am   66  TYR66      -0.1974
     30  CA         8.0070   -5.5890   -5.0340 C.3    66  TYR66       0.1639
     31  C          9.0710   -6.6150   -5.4090 C.2    66  TYR66       0.2290
     32  O          9.3090   -6.8650   -6.5890 O.2    66  TYR66      -0.2864
     33  CB         6.6580   -6.2860   -5.0950 C.3    66  TYR66       0.0560
     34  CG         5.4860   -5.5160   -4.5790 C.ar   66  TYR66      -0.0198
     35  CD1        5.3940   -5.1620   -3.2390 C.ar   66  TYR66      -0.0009
     36  CD2        4.4380   -5.1670   -5.4220 C.ar   66  TYR66      -0.0009
     37  CE1        4.2940   -4.4590   -2.7520 C.ar   66  TYR66       0.0417
     38  CE2        3.3230   -4.4740   -4.9380 C.ar   66  TYR66       0.0417
     39  CZ         3.2590   -4.1260   -3.6020 C.ar   66  TYR66       0.1957
     40  OH         2.1620   -3.4450   -3.0990 O.3    66  TYR66      -0.2866
     41  N          3.6030   -2.0210  -12.4660 N.3    75  LEU75      -0.1231
     42  CA         2.7570   -0.9280  -11.9680 C.3    75  LEU75       0.1693
     43  C          3.0300   -0.7750  -10.4860 C.2    75  LEU75       0.2592
     44  O          2.9270   -1.7440   -9.7390 O.2    75  LEU75      -0.2718
     45  CB         1.2770   -1.2540  -12.1740 C.3    75  LEU75       0.0284
     46  CG         0.8140   -1.5410  -13.5940 C.3    75  LEU75       0.0019
     47  CD1       -0.6510   -1.9280  -13.5690 C.3    75  LEU75       0.0001
     48  CD2        1.0470   -0.3580  -14.5030 C.3    75  LEU75       0.0001
     49  N          3.3570    0.4260  -10.0260 N.am   76  CYS76      -0.1956
     50  CA         3.6670    0.5880   -8.6160 C.3    76  CYS76       0.1843
     51  C          2.5000    0.1830   -7.7190 C.2    76  CYS76       0.2625
     52  O          1.3350    0.4930   -8.0170 O.2    76  CYS76      -0.2714
     53  CB         4.1600    2.0000   -8.3050 C.3    76  CYS76       0.0997
     54  SG         2.9400    3.2900   -8.4140 S.3    76  CYS76      -0.0797
     55  N          2.8390   -0.5560   -6.6570 N.am   77  PHE77      -0.1974
     56  CA         1.9220   -1.0350   -5.6040 C.3    77  PHE77       0.1639
     57  C          0.9970   -2.1780   -5.9920 C.2    77  PHE77       0.2290
     58  O          0.4260   -2.8100   -5.1150 O.2    77  PHE77      -0.2864
     59  CB         1.1040    0.1110   -4.9860 C.3    77  PHE77       0.0560
     60  CG         1.9380    1.1250   -4.2740 C.ar   77  PHE77      -0.0200
     61  CD1        2.1150    2.3870   -4.8140 C.ar   77  PHE77      -0.0042
     62  CD2        2.5540    0.8200   -3.0660 C.ar   77  PHE77      -0.0042
     63  CE1        2.8870    3.3430   -4.1530 C.ar   77  PHE77      -0.0003
     64  CE2        3.3210    1.7750   -2.4030 C.ar   77  PHE77      -0.0003
     65  CZ         3.4970    3.0250   -2.9530 C.ar   77  PHE77      -0.0000
     66  N          1.1340   -2.4920    2.1500 N.3    88  SER88      -0.1217
     67  CA         1.0080   -1.1310    1.6330 C.3    88  SER88       0.1889
     68  C         -0.2440   -0.9470    0.7820 C.2    88  SER88       0.2288
     69  O         -0.9160    0.0830    0.8690 O.2    88  SER88      -0.2866
     70  CB         2.2460   -0.7400    0.8350 C.3    88  SER88       0.2089
     71  OG         3.4070   -0.6840    1.6610 O.3    88  SER88      -0.2183
     72  N          7.0540    3.4200  -10.7720 N.3   123  ASN123     -0.1240
     73  CA         8.1970    3.2950   -9.8710 C.3   123  ASN123      0.1653
     74  C          9.4220    4.0180  -10.4160 C.2   123  ASN123      0.2266
     75  O          9.6060    4.1080  -11.6170 O.2   123  ASN123     -0.2867
     76  CB         8.5470    1.8310   -9.6640 C.3   123  ASN123      0.1155
     77  CG         7.6720    1.1640   -8.6320 C.2   123  ASN123      0.2627
     78  OD1        7.3120    1.7710   -7.6130 O.2   123  ASN123     -0.2716
     79  ND2        7.3460   -0.1010   -8.8690 N.am  123  ASN123     -0.0877
     80  N          3.6590   10.3000   -2.2340 N.3   164  TRP164     -0.1227
     81  CA         3.4850    9.6310   -0.9570 C.3   164  TRP164      0.1737
     82  C          4.8370    9.2630   -0.4050 C.2   164  TRP164      0.2596
     83  O          5.5090    8.3920   -0.9550 O.2   164  TRP164     -0.2718
     84  CB         2.6490    8.3750   -1.1610 C.3   164  TRP164      0.0564
     85  CG         1.2540    8.6170   -1.6920 C.ar  164  TRP164      0.0003
     86  CD1        0.5400    9.7880   -1.6730 C.ar  164  TRP164      0.0946
     87  CD2        0.3990    7.6390   -2.2780 C.ar  164  TRP164      0.0152
     88  NE1       -0.7000    9.5920   -2.2260 N.ar  164  TRP164     -0.2442
     89  CE2       -0.8190    8.2760   -2.5940 C.ar  164  TRP164      0.0810
     90  CE3        0.5520    6.2800   -2.5800 C.ar  164  TRP164      0.0012
     91  CZ2       -1.8850    7.5940   -3.1910 C.ar  164  TRP164      0.0191
     92  CZ3       -0.5100    5.6010   -3.1570 C.ar  164  TRP164      0.0001
     93  CH2       -1.7080    6.2580   -3.4620 C.ar  164  TRP164      0.0015
     94  N          5.2380    9.9530    0.6600 N.am  165  GLY165     -0.1942
     95  CA         6.5460    9.7660    1.2710 C.3   165  GLY165      0.2014
     96  C          7.6060   10.7280    0.7620 C.2   165  GLY165      0.2640
     97  O          7.4490   11.3730   -0.2850 O.2   165  GLY165     -0.2714
     98  N          8.7120   10.8050    1.5010 N.am  166  SER166     -0.1935
     99  CA         9.7770   11.7630    1.2100 C.3   166  SER166      0.2055
    100  C         10.4810   11.4870   -0.1260 C.2   166  SER166      0.2643
    101  O         10.8640   12.4190   -0.8410 O.2   166  SER166     -0.2714
    102  CB        10.7960   11.7930    2.3550 C.3   166  SER166      0.2130
    103  OG        11.5360   10.5970    2.4200 O.3   166  SER166     -0.2179
    104  N         10.6440   10.2140   -0.4710 N.am  167  TYR167     -0.1973
    105  CA        11.3240    9.8630   -1.7100 C.3   167  TYR167      0.1639
    106  C         10.5230   10.3470   -2.9270 C.2   167  TYR167      0.2290
    107  O         11.0660   10.9560   -3.8450 O.2   167  TYR167     -0.2864
    108  CB        11.5470    8.3520   -1.7810 C.3   167  TYR167      0.0560
    109  CG        12.2880    7.9080   -3.0230 C.ar  167  TYR167     -0.0198
    110  CD1       13.6760    7.7640   -3.0170 C.ar  167  TYR167     -0.0009
    111  CD2       11.6010    7.6640   -4.2160 C.ar  167  TYR167     -0.0009
    112  CE1       14.3590    7.3570   -4.1630 C.ar  167  TYR167      0.0417
    113  CE2       12.2650    7.2760   -5.3580 C.ar  167  TYR167      0.0417
    114  CZ        13.6440    7.1250   -5.3280 C.ar  167  TYR167      0.1957
    115  OH        14.2780    6.7270   -6.4810 O.3   167  TYR167     -0.2866
    116  N          4.0590    7.9880    3.2750 N.3   187  HIS187     -0.1241
    117  CA         4.0240    6.7410    2.5410 C.3   187  HIS187      0.1621
    118  C          3.0270    5.7550    3.1640 C.2   187  HIS187      0.2264
    119  O          2.8660    5.7380    4.3810 O.2   187  HIS187     -0.2867
    120  CB         5.4210    6.1610    2.5710 C.3   187  HIS187      0.0745
    121  CG         5.6330    5.0500    1.6040 C.ar  187  HIS187      0.0817
    122  ND1        5.2480    3.7540    1.8680 N.ar  187  HIS187     -0.2268
    123  CD2        6.1910    5.0390    0.3730 C.ar  187  HIS187      0.1154
    124  CE1        5.5680    2.9900    0.8410 C.ar  187  HIS187      0.1986
    125  NE2        6.1310    3.7480   -0.0850 N.ar  187  HIS187     -0.2212
    126  N          3.2010    2.5720    3.6130 N.3   189  SER189     -0.1203
    127  CA         3.7850    1.3930    4.2700 C.3   189  SER189      0.2005
    128  C          3.3300    1.3260    5.7300 C.2   189  SER189      0.2461
    129  O          3.0630    2.3530    6.3410 O.2   189  SER189     -0.2732
    130  CB         5.3140    1.4380    4.2110 C.3   189  SER189      0.2103
    131  OG         5.8150    2.2590    5.2570 O.3   189  SER189     -0.2182
    132  N          3.2470    0.1130    6.3020 N.am  190  PRO190     -0.2717
    133  CA         2.8240    0.0070    7.7060 C.3   190  PRO190      0.1535
    134  C          3.5990    0.8810    8.6930 C.2   190  PRO190      0.2598
    135  O          3.0200    1.3920    9.6410 O.2   190  PRO190     -0.2715
    136  CB         3.0430   -1.4730    8.0210 C.3   190  PRO190      0.0310
    137  CG         2.8460   -2.1390    6.7090 C.3   190  PRO190      0.0237
    138  CD         3.4610   -1.2120    5.6890 C.3   190  PRO190      0.0939
    139  N          4.8880    1.0830    8.4480 N.am  191  LEU191     -0.1964
    140  CA         5.7060    1.8460    9.3900 C.3   191  LEU191      0.1728
    141  C          5.4660    3.3510    9.3340 C.2   191  LEU191      0.2616
    142  O          5.8310    4.0610   10.2670 O.2   191  LEU191     -0.2715
    143  CB         7.1870    1.5570    9.1780 C.3   191  LEU191      0.0311
    144  CG         7.6770    0.1640    9.5810 C.3   191  LEU191      0.0022
    145  CD1        9.1210    0.0090    9.1260 C.3   191  LEU191      0.0001
    146  CD2        7.5540   -0.0640   11.0900 C.3   191  LEU191      0.0001
    147  N          4.8430    3.8300    8.2550 N.am  192  SER192     -0.1950
    148  CA         4.6670    5.2600    8.0040 C.3   192  SER192      0.1924
    149  C          3.2200    5.7030    7.8150 C.2   192  SER192      0.2314
    150  O          2.9430    6.9020    7.8530 O.2   192  SER192     -0.2863
    151  CB         5.4760    5.6820    6.7740 C.3   192  SER192      0.2116
    152  OG         5.0670    4.9430    5.6440 O.3   192  SER192     -0.2180
    153  N          1.4790    8.2750    9.9110 N.3   195  ARG195     -0.1245
    154  CA         2.1400    9.5680    9.9580 C.3   195  ARG195      0.1563
    155  C          1.6470   10.4980    8.8340 C.2   195  ARG195      0.2260
    156  O          2.3230   11.4510    8.4430 O.2   195  ARG195     -0.2867
    157  CB         3.6600    9.3790   10.0170 C.3   195  ARG195      0.0307
    158  CG         4.0830    8.4180   11.1480 C.3   195  ARG195      0.0489
    159  CD         5.5850    8.4270   11.4370 C.3   195  ARG195      0.2205
    160  NE         6.3830    8.1710   10.2380 N.pl3 195  ARG195     -0.0865
    161  CZ         7.2430    7.1630   10.0840 C.cat 195  ARG195      0.5346
    162  NH1        7.4480    6.2860   11.0550 N.pl3 195  ARG195      0.1354
    163  NH2        7.9110    7.0380    8.9440 N.pl3 195  ARG195      0.1354
@<TRIPOS>BOND
     1    48    46    1
     2    46    47    1
     3    46    45    1
     4    41    42    1
     5    45    42    1
     6    42    43    1
     7    75    74    2
     8    72    73    1
     9    43    49   am
    10    43    44    2
    11    74    73    1
    12    49    50    1
    13    73    76    1
    14    76    77    1
    15    27    26    1
    16    27    28    1
    17    79    77   am
    18    77    78    2
    19    50    53    1
    20    50    51    1
    21    26    23    1
    22    54    53    1
    23    28    22    1
    24    52    51    2
    25    51    55   am
    26    23    22    1
    27    23    24    1
    28     8     7    2
    29     1     2    1
    30    22    16   am
    31     4     3    2
    32    55    56    1
    33    32    31    2
    34   115   114    1
    35     3     2    1
    36     3     5   am
    37    24    29   am
    38    24    25    2
    39     7     6    1
    40     7    14   am
    41    16    15    1
    42    16    17    2
    43    57    56    1
    44    57    58    2
    45    29    30    1
    46    20    19   ar
    47    15    14    1
    48    15    18    1
    49     5     6    1
    50    56    59    1
    51     6     9    1
    52    36    38   ar
    53    36    34   ar
    54    31    30    1
    55   113   114   ar
    56   113   111   ar
    57   114   112   ar
    58    33    30    1
    59    33    34    1
    60    19    18    1
    61    19    21   ar
    62    59    60    1
    63    38    39   ar
    64    61    60   ar
    65    61    63   ar
    66    34    35   ar
    67    60    62   ar
    68   111   109   ar
    69   112   110   ar
    70    63    65   ar
    71     9    10    1
    72   107   106    2
    73    10    11    1
    74    39    40    1
    75    39    37   ar
    76    93    91   ar
    77    93    92   ar
    78    35    37   ar
    79    91    89   ar
    80    92    90   ar
    81    62    64   ar
    82   109   110   ar
    83   109   108    1
    84    65    64   ar
    85   106   105    1
    86    89    87   ar
    87    89    88   ar
    88    90    87   ar
    89    11    13   am
    90    11    12    2
    91    87    85   ar
    92    80    81    1
    93    88    86   ar
    94   108   105    1
    95   105   104    1
    96    85    86   ar
    97    85    84    1
    98    84    81    1
    99    81    82    1
   100    83    82    2
   101   101   100    2
   102   104   100   am
   103    82    94   am
   104    97    96    2
   105   100    99    1
   106   125   123   ar
   107   125   124   ar
   108   123   121   ar
   109    94    95    1
   110    96    95    1
   111    96    98   am
   112    68    69    2
   113    68    67    1
   114    70    67    1
   115    70    71    1
   116   124   122   ar
   117    99    98    1
   118    99   102    1
   119   121   122   ar
   120   121   120    1
   121    67    66    1
   122   102   103    1
   123   117   120    1
   124   117   118    1
   125   117   116    1
   126   118   119    2
   127   126   127    1
   128   130   127    1
   129   130   131    1
   130   127   128    1
   131   152   151    1
   132   138   132    1
   133   138   137    1
   134   128   132   am
   135   128   129    2
   136   132   133    1
   137   137   136    1
   138   151   148    1
   139   133   136    1
   140   133   134    1
   141   149   150    2
   142   149   148    1
   143   148   147    1
   144   147   141   am
   145   156   155    2
   146   139   134   am
   147   139   140    1
   148   134   135    2
   149   155   154    1
   150   163   161    1
   151   145   144    1
   152   143   140    1
   153   143   144    1
   154   141   140    1
   155   141   142    2
   156   144   146    1
   157   153   154    1
   158   154   157    1
   159   157   158    1
   160   161   160    2
   161   161   162    1
   162   160   159    1
   163   158   159    1
