@<TRIPOS>MOLECULE
tmp/2hxqA00.pdb
 140 132 0 0 0
SMALL
GASTEIGER

@<TRIPOS>ATOM
      1  N         18.4640   -6.3510   -0.2820 N.3    12  GLN12      -0.1231
      2  CA        19.1770   -7.1640    0.6950 C.3    12  GLN12       0.1698
      3  C         18.4550   -7.2880    2.0240 C.2    12  GLN12       0.2593
      4  O         17.4060   -6.6960    2.2360 O.2    12  GLN12      -0.2718
      5  CB        20.5700   -6.5980    0.9480 C.3    12  GLN12       0.0381
      6  CG        20.5660   -5.2030    1.5440 C.3    12  GLN12       0.0905
      7  CD        21.9150   -4.8160    2.1230 C.2    12  GLN12       0.2608
      8  OE1       22.9290   -4.8460    1.4360 O.2    12  GLN12      -0.2717
      9  NE2       21.9250   -4.4480    3.3990 N.am   12  GLN12      -0.0878
     10  N         19.0460   -8.0720    2.9160 N.am   13  THR13      -0.1939
     11  CA        18.4840   -8.2870    4.2380 C.3    13  THR13       0.2028
     12  C         19.1840   -7.4040    5.2620 C.2    13  THR13       0.2642
     13  O         20.3950   -7.4590    5.4200 O.2    13  THR13      -0.2714
     14  CB        18.6160   -9.7640    4.6630 C.3    13  THR13       0.1808
     15  OG1       18.2590   -9.9010    6.0440 O.3    13  THR13      -0.2208
     16  CG2       20.0400  -10.2520    4.4570 C.3    13  THR13       0.0379
     17  N         18.4000   -6.5780    5.9420 N.am   14  LEU14      -0.1977
     18  CA        18.9160   -5.6750    6.9630 C.3    14  LEU14       0.1596
     19  C         19.1500   -6.4130    8.2770 C.2    14  LEU14       0.2287
     20  O         20.0630   -6.0870    9.0280 O.2    14  LEU14      -0.2864
     21  CB        17.9300   -4.5220    7.1880 C.3    14  LEU14       0.0297
     22  CG        18.0880   -3.2580    6.3280 C.3    14  LEU14       0.0022
     23  CD1       19.0810   -3.4990    5.2090 C.3    14  LEU14       0.0001
     24  CD2       16.7310   -2.8430    5.7870 C.3    14  LEU14       0.0001
     25  N         13.8950   -8.4510    8.0210 N.3    22  VAL22      -0.1245
     26  CA        13.7110   -7.0830    7.5700 C.3    22  VAL22       0.1561
     27  C         14.5970   -6.9090    6.3520 C.2    22  VAL22       0.2260
     28  O         15.7590   -7.2690    6.3830 O.2    22  VAL22      -0.2867
     29  CB        14.1440   -6.0720    8.6530 C.3    22  VAL22       0.0252
     30  CG1       14.0110   -4.6520    8.1280 C.3    22  VAL22       0.0019
     31  CG2       13.2990   -6.2570    9.8960 C.3    22  VAL22       0.0019
     32  N         12.6590    0.2940    4.5280 N.3    35  ALA35      -0.1245
     33  CA        12.8510   -1.0190    5.1140 C.3    35  ALA35       0.1562
     34  C         11.5030   -1.7200    5.1680 C.2    35  ALA35       0.2260
     35  O         10.4840   -1.1000    5.4370 O.2    35  ALA35      -0.2867
     36  CB        13.4370   -0.8910    6.5120 C.3    35  ALA35       0.0290
     37  N          9.5240   -4.8320    6.9610 N.3    37  LYS37      -0.1245
     38  CA         9.5010   -5.8500    7.9950 C.3    37  LYS37       0.1561
     39  C          8.5700   -6.9280    7.4690 C.2    37  LYS37       0.2260
     40  O          7.4040   -6.6740    7.2100 O.2    37  LYS37      -0.2867
     41  CB         8.9670   -5.2630    9.3200 C.3    37  LYS37       0.0271
     42  CG         9.0460   -6.1250   10.5760 C.3    37  LYS37       0.0035
     43  CD         8.7050   -5.3070   11.8160 C.3    37  LYS37       0.0206
     44  CE         8.8310   -6.1210   13.0980 C.3    37  LYS37       0.1093
     45  NZ         7.7870   -7.1790   13.2110 N.3    37  LYS37      -0.1314
     46  N         11.2160    5.8730   14.2940 N.3    64  VAL64      -0.1245
     47  CA        11.1210    5.2980   12.9560 C.3    64  VAL64       0.1561
     48  C          9.7320    5.4970   12.3520 C.2    64  VAL64       0.2260
     49  O          8.7310    5.0460   12.9040 O.2    64  VAL64      -0.2867
     50  CB        11.4650    3.7910   12.9790 C.3    64  VAL64       0.0252
     51  CG1       11.1590    3.1620   11.6300 C.3    64  VAL64       0.0019
     52  CG2       12.9420    3.6050   13.3150 C.3    64  VAL64       0.0019
     53  N          8.5700    0.5440    6.6000 N.3    80  LEU80      -0.1231
     54  CA         9.0920    1.4830    7.5800 C.3    80  LEU80       0.1693
     55  C         10.2840    2.2900    7.0780 C.2    80  LEU80       0.2592
     56  O         10.8530    2.0070    6.0340 O.2    80  LEU80      -0.2718
     57  CB         9.4830    0.7140    8.8320 C.3    80  LEU80       0.0284
     58  CG         8.3330   -0.1000    9.4600 C.3    80  LEU80       0.0019
     59  CD1        8.8710   -1.3950   10.0390 C.3    80  LEU80       0.0001
     60  CD2        7.6320    0.7370   10.5210 C.3    80  LEU80       0.0001
     61  N         10.6570    3.3010    7.8520 N.am   81  GLU81      -0.1966
     62  CA        11.7700    4.1720    7.5060 C.3    81  GLU81       0.1733
     63  C         13.0900    3.4170    7.4120 C.2    81  GLU81       0.2616
     64  O         13.3920    2.5580    8.2460 O.2    81  GLU81      -0.2715
     65  CB        11.8990    5.2630    8.5410 C.3    81  GLU81       0.0429
     66  CG        12.8040    6.4220    8.1640 C.3    81  GLU81       0.1163
     67  CD        13.0130    7.3800    9.3140 C.2    81  GLU81       0.3649
     68  OE1       12.0500    7.6030   10.0790 O.co2  81  GLU81      -0.2457
     69  OE2       14.1370    7.9160    9.4480 O.co2  81  GLU81      -0.2457
     70  N         13.8740    3.7350    6.3880 N.am   82  TYR82      -0.1960
     71  CA        15.1730    3.1030    6.2210 C.3    82  TYR82       0.1771
     72  C         16.2510    3.9610    6.8780 C.2    82  TYR82       0.2620
     73  O         16.3770    5.1380    6.5880 O.2    82  TYR82      -0.2715
     74  CB        15.5050    2.9190    4.7370 C.3    82  TYR82       0.0574
     75  CG        16.9300    2.4690    4.5040 C.ar   82  TYR82      -0.0198
     76  CD1       17.4270    1.3280    5.1180 C.ar   82  TYR82      -0.0009
     77  CD2       17.7870    3.2020    3.6910 C.ar   82  TYR82      -0.0009
     78  CE1       18.7380    0.9330    4.9330 C.ar   82  TYR82       0.0417
     79  CE2       19.0950    2.8140    3.5000 C.ar   82  TYR82       0.0417
     80  CZ        19.5650    1.6820    4.1240 C.ar   82  TYR82       0.1957
     81  OH        20.8790    1.3110    3.9530 O.3    82  TYR82      -0.2866
     82  N         17.0250    3.3520    7.7680 N.am   83  CYS83      -0.1954
     83  CA        18.0930    4.0540    8.4690 C.3    83  CYS83       0.1843
     84  C         19.4260    3.4280    8.0680 C.2    83  CYS83       0.2626
     85  O         19.8360    2.4160    8.6210 O.2    83  CYS83      -0.2714
     86  CB        17.8770    3.9440    9.9980 C.3    83  CYS83       0.0997
     87  SG        16.2370    4.5010   10.5620 S.3    83  CYS83      -0.0797
     88  N         20.0850    4.0440    7.0890 N.am   84  SER84      -0.1936
     89  CA        21.3630    3.5620    6.5630 C.3    84  SER84       0.2055
     90  C         22.4840    3.4030    7.5860 C.2    84  SER84       0.2644
     91  O         23.4090    2.6450    7.3620 O.2    84  SER84      -0.2714
     92  CB        21.8490    4.4850    5.4360 C.3    84  SER84       0.2130
     93  OG        22.0570    5.8050    5.9060 O.3    84  SER84      -0.2179
     94  N         22.3960    4.1210    8.7010 N.am   85  GLY85      -0.1939
     95  CA        23.4260    4.0310    9.7280 C.3    85  GLY85       0.2014
     96  C         23.4400    2.7340   10.5210 C.2    85  GLY85       0.2639
     97  O         24.4230    2.4140   11.1820 O.2    85  GLY85      -0.2714
     98  N         22.3470    1.9830   10.4600 N.am   86  GLY86      -0.1939
     99  CA        22.2760    0.7280   11.1810 C.3    86  GLY86       0.2014
    100  C         21.8980    0.8880   12.6400 C.2    86  GLY86       0.2638
    101  O         21.3080    1.8800   13.0330 O.2    86  GLY86      -0.2714
    102  N         22.2690   -0.1040   13.4420 N.am   87  GLU87      -0.1977
    103  CA        21.9670   -0.1230   14.8650 C.3    87  GLU87       0.1602
    104  C         23.0190    0.5360   15.7390 C.2    87  GLU87       0.2287
    105  O         24.2080    0.4040   15.5050 O.2    87  GLU87      -0.2864
    106  CB        21.7930   -1.5560   15.3370 C.3    87  GLU87       0.0415
    107  CG        20.7000   -2.3100   14.6150 C.3    87  GLU87       0.1163
    108  CD        20.5380   -3.7250   15.1350 C.2    87  GLU87       0.3649
    109  OE1       19.5790   -4.4030   14.7090 O.co2  87  GLU87      -0.2457
    110  OE2       21.3650   -4.1540   15.9680 O.co2  87  GLU87      -0.2457
    111  N         25.9670   -1.4570   17.0880 N.3    90  ASP90      -0.1239
    112  CA        27.2050   -1.5740   16.3200 C.3    90  ASP90       0.1674
    113  C         28.1450   -0.3770   16.3940 C.2    90  ASP90       0.2266
    114  O         29.2320   -0.4140   15.8440 O.2    90  ASP90      -0.2867
    115  CB        26.8780   -1.8720   14.8630 C.3    90  ASP90       0.1410
    116  CG        26.2430   -3.2390   14.6820 C.2    90  ASP90       0.3668
    117  OD1       25.5540   -3.4530   13.6650 O.co2  90  ASP90      -0.2456
    118  OD2       26.4440   -4.1060   15.5560 O.co2  90  ASP90      -0.2456
    119  N         18.1130    2.9280   15.9830 N.3   133  LEU133     -0.1245
    120  CA        18.7610    3.0310   14.6780 C.3   133  LEU133      0.1561
    121  C         19.3300    4.4090   14.3770 C.2   133  LEU133      0.2260
    122  O         18.9460    5.3940   14.9890 O.2   133  LEU133     -0.2867
    123  CB        17.7620    2.6390   13.5830 C.3   133  LEU133      0.0270
    124  CG        17.0890    1.2840   13.8310 C.3   133  LEU133      0.0019
    125  CD1       16.0780    1.0020   12.7230 C.3   133  LEU133      0.0001
    126  CD2       18.1500    0.1880   13.9040 C.3   133  LEU133      0.0001
    127  N         13.0220    2.2320   17.3040 N.3   143  SER143     -0.1202
    128  CA        12.2790    1.3120   16.4460 C.3   143  SER143      0.2020
    129  C         11.7510    0.0620   17.1490 C.2   143  SER143      0.2618
    130  O         12.0810   -0.2140   18.3010 O.2   143  SER143     -0.2717
    131  CB        13.1420    0.8590   15.2670 C.3   143  SER143      0.2103
    132  OG        14.0660   -0.1310   15.6810 O.3   143  SER143     -0.2182
    133  N         10.9380   -0.6910   16.4110 N.am  144  ASP144     -0.1973
    134  CA        10.3240   -1.9290   16.8770 C.3   144  ASP144      0.1709
    135  C          9.3080   -1.7060   17.9900 C.2   144  ASP144      0.2293
    136  O          9.6500   -1.6750   19.1670 O.2   144  ASP144     -0.2864
    137  CB        11.4020   -2.9300   17.3500 C.3   144  ASP144      0.1436
    138  CG        10.8370   -4.3230   17.5820 C.2   144  ASP144      0.3671
    139  OD1       11.6250   -5.2460   17.8970 O.co2 144  ASP144     -0.2456
    140  OD2        9.6020   -4.4930   17.4430 O.co2 144  ASP144     -0.2456
@<TRIPOS>BOND
     1     1     2    1
     2     2     5    1
     3     2     3    1
     4     5     6    1
     5     8     7    2
     6     6     7    1
     7     3     4    2
     8     3    10   am
     9     7     9   am
    10    10    11    1
    11    79    77   ar
    12    79    80   ar
    13    77    75   ar
    14    81    80    1
    15    80    78   ar
    16    11    14    1
    17    11    12    1
    18    16    14    1
    19    75    74    1
    20    75    76   ar
    21    32    33    1
    22    14    15    1
    23    74    71    1
    24    78    76   ar
    25    33    34    1
    26    33    36    1
    27    34    35    2
    28    23    22    1
    29    12    13    2
    30    12    17   am
    31    92    93    1
    32    92    89    1
    33    24    22    1
    34    17    18    1
    35    56    55    2
    36    71    70    1
    37    71    72    1
    38    22    21    1
    39    27    28    2
    40    27    26    1
    41    70    63   am
    42    89    88    1
    43    89    90    1
    44    73    72    2
    45    53    54    1
    46    72    82   am
    47    37    38    1
    48    18    21    1
    49    18    19    1
    50    55    54    1
    51    55    61   am
    52    88    84   am
    53    40    39    2
    54    91    90    2
    55    63    62    1
    56    63    64    2
    57    39    38    1
    58    62    61    1
    59    62    65    1
    60    26    25    1
    61    26    29    1
    62    54    57    1
    63    90    94   am
    64    82    83    1
    65    38    41    1
    66    84    83    1
    67    84    85    2
    68    30    29    1
    69    66    65    1
    70    66    67    1
    71    19    20    2
    72    83    86    1
    73    29    31    1
    74    94    95    1
    75    57    58    1
    76    67    69   ar
    77    67    68   ar
    78    41    42    1
    79    58    59    1
    80    58    60    1
    81    95    96    1
    82    86    87    1
    83    98    96   am
    84    98    99    1
    85    96    97    2
    86    42    43    1
    87    99   100    1
    88    51    50    1
    89    43    44    1
    90    48    49    2
    91    48    47    1
    92   100   101    2
    93   100   102   am
    94   125   124    1
    95    47    50    1
    96    47    46    1
    97    50    52    1
    98    44    45    1
    99   102   103    1
   100   123   124    1
   101   123   120    1
   102   117   116   ar
   103   124   126    1
   104   121   120    1
   105   121   122    2
   106   107   108    1
   107   107   106    1
   108   120   119    1
   109   116   115    1
   110   116   118   ar
   111   109   108   ar
   112   115   112    1
   113   103   106    1
   114   103   104    1
   115   108   110   ar
   116   131   132    1
   117   131   128    1
   118   105   104    2
   119   114   113    2
   120   112   113    1
   121   112   111    1
   122   133   134    1
   123   133   129   am
   124   128   129    1
   125   128   127    1
   126   134   137    1
   127   134   135    1
   128   129   130    2
   129   137   138    1
   130   140   138   ar
   131   138   139   ar
   132   135   136    2
