@<TRIPOS>MOLECULE
tmp/2hxsA00.pdb
 98 93 0 0 0
SMALL
GASTEIGER

@<TRIPOS>ATOM
      1  N         18.3900   29.6240   15.4090 N.3    15  GLY15      -0.1210
      2  CA        19.4830   28.9170   14.7590 C.3    15  GLY15       0.1956
      3  C         19.5290   27.4590   15.2300 C.2    15  GLY15       0.2612
      4  O         19.2100   27.1270   16.3750 O.2    15  GLY15      -0.2717
      5  N         19.9090   26.5870   14.3060 N.am   16  ALA16      -0.1965
      6  CA        20.0880   25.1490   14.5200 C.3    16  ALA16       0.1728
      7  C         18.7680   24.3650   14.5780 C.2    16  ALA16       0.2617
      8  O         18.8120   23.1590   14.7490 O.2    16  ALA16      -0.2715
      9  CB        21.0110   24.8220   15.7150 C.3    16  ALA16       0.0334
     10  N         17.6560   25.0090   14.2830 N.am   17  SER17      -0.1936
     11  CA        16.3750   24.3060   14.2610 C.3    17  SER17       0.2055
     12  C         16.1730   23.4520   13.0300 C.2    17  SER17       0.2644
     13  O         15.3910   22.4920   13.0550 O.2    17  SER17      -0.2714
     14  CB        15.2720   25.3180   14.3600 C.3    17  SER17       0.2130
     15  OG        15.2670   25.9030   15.6470 O.3    17  SER17      -0.2179
     16  N         16.8680   23.7990   11.9650 N.am   18  GLY18      -0.1939
     17  CA        16.7900   23.0980   10.6860 C.3    18  GLY18       0.2014
     18  C         16.1810   23.8680    9.5540 C.2    18  GLY18       0.2639
     19  O         15.7470   23.2450    8.5740 O.2    18  GLY18      -0.2714
     20  N         16.1410   25.1940    9.6440 N.am   19  LYS19      -0.1963
     21  CA        15.4960   26.0250    8.6150 C.3    19  LYS19       0.1728
     22  C         16.1590   25.8330    7.2440 C.2    19  LYS19       0.2617
     23  O         15.4360   25.6460    6.2420 O.2    19  LYS19      -0.2715
     24  CB        15.5480   27.4780    9.0160 C.3    19  LYS19       0.0311
     25  CG        14.8340   27.7450   10.3180 C.3    19  LYS19       0.0038
     26  CD        14.8130   29.2520   10.7140 C.3    19  LYS19       0.0206
     27  CE        16.2010   29.8410   10.8140 C.3    19  LYS19       0.1093
     28  NZ        17.0100   29.1660   11.8750 N.3    19  LYS19      -0.1314
     29  N         17.4670   25.9270    7.1620 N.am   20  THR20      -0.1937
     30  CA        18.1110   25.8310    5.8810 C.3    20  THR20       0.2028
     31  C         18.0330   24.4220    5.3290 C.2    20  THR20       0.2642
     32  O         17.8680   24.1980    4.1230 O.2    20  THR20      -0.2714
     33  CB        19.5820   26.2960    5.9870 C.3    20  THR20       0.1808
     34  OG1       19.5740   27.6280    6.5090 O.3    20  THR20      -0.2208
     35  CG2       20.2960   26.2720    4.6500 C.3    20  THR20       0.0379
     36  N         18.0910   23.4320    6.2280 N.am   21  SER21      -0.1949
     37  CA        17.9050   22.0460    5.8100 C.3    21  SER21       0.1924
     38  C         16.5200   21.8540    5.2390 C.2    21  SER21       0.2314
     39  O         16.3340   21.1290    4.2260 O.2    21  SER21      -0.2863
     40  CB        18.0960   21.1350    6.9980 C.3    21  SER21       0.2116
     41  OG        19.4680   21.1780    7.4740 O.3    21  SER21      -0.2180
     42  N         18.2370   32.7300    7.0940 N.3    64  GLY64      -0.1225
     43  CA        19.6250   32.6280    7.3460 C.3    64  GLY64       0.1811
     44  C         19.9190   32.6880    8.8180 C.2    64  GLY64       0.2280
     45  O         19.2910   32.0080    9.6220 O.2    64  GLY64      -0.2866
     46  N         10.6130   20.0990   13.6700 N.3   123  ASN123     -0.1225
     47  CA        11.5630   19.4430   12.8390 C.3   123  ASN123      0.1785
     48  C         12.3780   18.4260   13.6340 C.2   123  ASN123      0.2597
     49  O         12.4480   18.4600   14.8820 O.2   123  ASN123     -0.2718
     50  CB        12.5040   20.5030   12.1960 C.3   123  ASN123      0.1169
     51  CG        13.4190   19.8990   11.1660 C.2   123  ASN123      0.2627
     52  OD1       13.0340   19.0430   10.3620 O.2   123  ASN123     -0.2716
     53  ND2       14.6880   20.3270   11.2030 N.am  123  ASN123     -0.0877
     54  N         13.0570   17.5390   12.9040 N.am  124  LYS124     -0.1980
     55  CA        13.8850   16.4400   13.4610 C.3   124  LYS124      0.1596
     56  C         13.0220   15.3290   13.9940 C.2   124  LYS124      0.2287
     57  O         13.4150   14.6640   14.9780 O.2   124  LYS124     -0.2864
     58  CB        14.9720   16.8930   14.4190 C.3   124  LYS124      0.0298
     59  CG        15.6830   18.1710   13.9820 C.3   124  LYS124      0.0038
     60  CD        17.0280   18.3590   14.6530 C.3   124  LYS124      0.0206
     61  CE        17.6270   19.7470   14.2580 C.3   124  LYS124      0.1093
     62  NZ        18.7630   20.1210   14.9830 N.3   124  LYS124     -0.1314
     63  N         12.7610   12.4780   12.9250 N.3   126  ASP126     -0.1225
     64  CA        13.5610   11.2580   12.9090 C.3   126  ASP126      0.1805
     65  C         14.1890   10.9870   14.2830 C.2   126  ASP126      0.2597
     66  O         14.6210    9.8550   14.5230 O.2   126  ASP126     -0.2718
     67  CB        14.6010   11.3300   11.7980 C.3   126  ASP126      0.1424
     68  CG        15.5520   12.5230   11.9530 C.2   126  ASP126      0.3668
     69  OD1       15.0530   13.6600   11.8750 O.co2 126  ASP126     -0.2456
     70  OD2       16.7630   12.3470   12.0840 O.co2 126  ASP126     -0.2456
     71  N         14.2860   12.0050   15.1290 N.am  127  LEU127     -0.1979
     72  CA        14.7880   11.9340   16.4990 C.3   127  LEU127      0.1596
     73  C         13.6980   11.8830   17.5170 C.2   127  LEU127      0.2287
     74  O         13.8980   12.2450   18.6910 O.2   127  LEU127     -0.2864
     75  CB        15.7550   13.0830   16.7690 C.3   127  LEU127      0.0297
     76  CG        16.9010   13.2980   15.7700 C.3   127  LEU127      0.0022
     77  CD1       17.7530   14.4690   16.1840 C.3   127  LEU127      0.0001
     78  CD2       17.7450   12.0210   15.5060 C.3   127  LEU127      0.0001
     79  N         10.9480   15.8960    9.0250 N.3   153  SER153     -0.1202
     80  CA        12.3810   15.7660    9.0930 C.3   153  SER153      0.2020
     81  C         12.9920   16.3220    7.8420 C.2   153  SER153      0.2619
     82  O         12.8510   15.7580    6.7370 O.2   153  SER153     -0.2717
     83  CB        12.8170   14.2900    9.2440 C.3   153  SER153      0.2103
     84  OG        14.2240   14.1750    9.1100 O.3   153  SER153     -0.2182
     85  N         13.7040   17.4140    7.9790 N.am  154  ALA154     -0.1965
     86  CA        14.4450   17.9960    6.8700 C.3   154  ALA154      0.1728
     87  C         15.5290   17.0660    6.4020 C.2   154  ALA154      0.2616
     88  O         15.9100   17.0980    5.2160 O.2   154  ALA154     -0.2715
     89  CB        15.0430   19.3550    7.2680 C.3   154  ALA154      0.0334
     90  N         16.0870   16.2400    7.3100 N.am  155  LYS155     -0.1977
     91  CA        17.2030   15.3190    6.9540 C.3   155  LYS155      0.1596
     92  C         16.7100   14.2820    6.0410 C.2   155  LYS155      0.2287
     93  O         17.3570   13.9380    5.0380 O.2   155  LYS155     -0.2864
     94  CB        17.7620   14.7120    8.2710 C.3   155  LYS155      0.0298
     95  CG        18.8050   13.6340    8.0410 C.3   155  LYS155      0.0038
     96  CD        19.4080   13.1330    9.4150 C.3   155  LYS155      0.0206
     97  CE        20.2890   11.9140    9.3050 C.3   155  LYS155      0.1093
     98  NZ        21.4640   12.2570    8.4870 N.3   155  LYS155     -0.1314
@<TRIPOS>BOND
     1    32    31    2
     2    39    38    2
     3    35    33    1
     4    93    92    2
     5    88    87    2
     6    38    37    1
     7    31    30    1
     8    31    36   am
     9    37    36    1
    10    37    40    1
    11    30    33    1
    12    30    29    1
    13    33    34    1
    14    92    91    1
    15    23    22    2
    16    87    86    1
    17    87    90   am
    18    82    81    2
    19    86    89    1
    20    86    85    1
    21    91    90    1
    22    91    94    1
    23    40    41    1
    24    42    43    1
    25    29    22   am
    26    22    21    1
    27    43    44    1
    28    81    85   am
    29    81    80    1
    30    95    94    1
    31    95    96    1
    32    98    97    1
    33    19    18    2
    34    21    24    1
    35    21    20    1
    36    44    45    2
    37    24    25    1
    38    79    80    1
    39    80    83    1
    40    84    83    1
    41    97    96    1
    42    18    20   am
    43    18    17    1
    44    25    26    1
    45    52    51    2
    46    17    16    1
    47    26    27    1
    48    27    28    1
    49    51    53   am
    50    51    50    1
    51    67    68    1
    52    67    64    1
    53    69    68   ar
    54    68    70   ar
    55    16    12   am
    56    50    47    1
    57    47    48    1
    58    47    46    1
    59    54    55    1
    60    54    48   am
    61    64    63    1
    62    64    65    1
    63    12    13    2
    64    12    11    1
    65    55    56    1
    66    55    58    1
    67    48    49    2
    68    59    58    1
    69    59    60    1
    70    56    57    2
    71    61    60    1
    72    61    62    1
    73    11    10    1
    74    11    14    1
    75    10     7   am
    76    65    66    2
    77    65    71   am
    78     5     6    1
    79     5     3   am
    80    14    15    1
    81     6     7    1
    82     6     9    1
    83     7     8    2
    84     2     3    1
    85     2     1    1
    86    71    72    1
    87     3     4    2
    88    78    76    1
    89    76    77    1
    90    76    75    1
    91    72    75    1
    92    72    73    1
    93    73    74    2
