@<TRIPOS>MOLECULE
tmp/2hxtA00.pdb
 138 128 0 0 0
SMALL
GASTEIGER

@<TRIPOS>ATOM
      1  N        -16.3760   65.0510   22.9860 N.3    21  GLY21      -0.1225
      2  CA       -17.6780   65.3280   23.5650 C.3    21  GLY21       0.1811
      3  C        -18.3500   64.1100   24.1770 C.2    21  GLY21       0.2280
      4  O        -19.4240   64.2210   24.7680 O.2    21  GLY21      -0.2866
      5  N        -19.5030   61.0850   26.5860 N.3    23  ASP23      -0.1239
      6  CA       -19.7320   60.9630   28.0240 C.3    23  ASP23       0.1674
      7  C        -20.4900   59.6660   28.3260 C.2    23  ASP23       0.2266
      8  O        -20.7460   58.8690   27.4200 O.2    23  ASP23      -0.2867
      9  CB       -20.4760   62.1950   28.5640 C.3    23  ASP23       0.1410
     10  CG       -21.8550   62.3660   27.9670 C.2    23  ASP23       0.3668
     11  OD1      -22.7090   61.4850   28.1840 O.co2  23  ASP23      -0.2456
     12  OD2      -22.0890   63.3890   27.2850 O.co2  23  ASP23      -0.2456
     13  N        -24.0210   59.9860   26.4570 N.3    26  ASN26      -0.1240
     14  CA       -23.8520   60.2340   25.0250 C.3    26  ASN26       0.1653
     15  C        -22.4500   59.7760   24.6250 C.2    26  ASN26       0.2266
     16  O        -21.4990   60.5500   24.6600 O.2    26  ASN26      -0.2867
     17  CB       -24.0150   61.7290   24.7540 C.3    26  ASN26       0.1155
     18  CG       -25.1740   62.3320   25.5240 C.2    26  ASN26       0.2627
     19  OD1      -26.3330   61.9790   25.3010 O.2    26  ASN26      -0.2716
     20  ND2      -24.8650   63.2410   26.4480 N.am   26  ASN26      -0.0877
     21  N        -21.5190   61.6550   20.4340 N.3    29  PRO29      -0.2116
     22  CA       -22.2160   62.8240   19.8970 C.3    29  PRO29       0.1372
     23  C        -21.5350   63.4560   18.6910 C.2    29  PRO29       0.2244
     24  O        -20.3090   63.4440   18.5730 O.2    29  PRO29      -0.2868
     25  CB       -22.2510   63.7760   21.0860 C.3    29  PRO29       0.0268
     26  CG       -20.9450   63.4760   21.7690 C.3    29  PRO29       0.0207
     27  CD       -20.9140   61.9590   21.7450 C.3    29  PRO29       0.0892
     28  N        -21.5730   66.9530   17.4310 N.3    31  TYR31      -0.1241
     29  CA       -21.9700   68.3240   17.7310 C.3    31  TYR31       0.1605
     30  C        -22.6290   68.9820   16.5310 C.2    31  TYR31       0.2264
     31  O        -22.0370   69.0730   15.4530 O.2    31  TYR31      -0.2867
     32  CB       -20.7580   69.1390   18.1830 C.3    31  TYR31       0.0534
     33  CG       -20.3270   68.8720   19.6140 C.ar   31  TYR31      -0.0201
     34  CD1      -19.3600   69.6670   20.2220 C.ar   31  TYR31      -0.0009
     35  CD2      -20.9120   67.8520   20.3690 C.ar   31  TYR31      -0.0009
     36  CE1      -18.9850   69.4650   21.5470 C.ar   31  TYR31       0.0417
     37  CE2      -20.5420   67.6390   21.7000 C.ar   31  TYR31       0.0417
     38  CZ       -19.5780   68.4550   22.2800 C.ar   31  TYR31       0.1957
     39  OH       -19.2150   68.2770   23.5960 O.3    31  TYR31      -0.2866
     40  N        -28.2480   73.9720   19.9820 N.3    53  PHE53      -0.1241
     41  CA       -27.2070   72.9550   19.9610 C.3    53  PHE53       0.1605
     42  C        -27.7850   71.5610   20.1840 C.2    53  PHE53       0.2264
     43  O        -28.5490   71.3500   21.1200 O.2    53  PHE53      -0.2867
     44  CB       -26.1560   73.2250   21.0440 C.3    53  PHE53       0.0534
     45  CG       -25.2040   72.0800   21.2460 C.ar   53  PHE53      -0.0203
     46  CD1      -24.3400   71.6920   20.2270 C.ar   53  PHE53      -0.0042
     47  CD2      -25.2000   71.3630   22.4350 C.ar   53  PHE53      -0.0042
     48  CE1      -23.4850   70.6000   20.3900 C.ar   53  PHE53      -0.0003
     49  CE2      -24.3510   70.2690   22.6100 C.ar   53  PHE53      -0.0003
     50  CZ       -23.4920   69.8860   21.5850 C.ar   53  PHE53      -0.0000
     51  N        -26.8520   67.0280   19.3280 N.3    55  ILE55      -0.1245
     52  CA       -25.7060   66.1610   19.1110 C.3    55  ILE55       0.1561
     53  C        -25.8070   65.1820   17.9500 C.2    55  ILE55       0.2260
     54  O        -25.2730   64.0760   18.0110 O.2    55  ILE55      -0.2867
     55  CB       -25.3350   65.4020   20.4100 C.3    55  ILE55       0.0252
     56  CG1      -26.5570   64.6920   20.9930 C.3    55  ILE55       0.0019
     57  CG2      -24.7680   66.3910   21.4290 C.3    55  ILE55       0.0019
     58  CD1      -26.2100   63.7550   22.1460 C.3    55  ILE55       0.0001
     59  N        -13.3420   63.8600   28.2480 N.3   193  TRP193     -0.1241
     60  CA       -14.3450   63.0750   27.5280 C.3   193  TRP193      0.1605
     61  C        -14.1210   61.5870   27.8200 C.2   193  TRP193      0.2264
     62  O        -12.9960   61.0910   27.7670 O.2   193  TRP193     -0.2867
     63  CB       -14.2670   63.3720   26.0330 C.3   193  TRP193      0.0550
     64  CG       -14.4560   64.8350   25.7080 C.ar  193  TRP193      0.0003
     65  CD1      -13.6090   65.6260   24.9820 C.ar  193  TRP193      0.0946
     66  CD2      -15.5670   65.6710   26.0730 C.ar  193  TRP193      0.0152
     67  NE1      -14.1210   66.8960   24.8680 N.ar  193  TRP193     -0.2442
     68  CE2      -15.3210   66.9530   25.5290 C.ar  193  TRP193      0.0810
     69  CE3      -16.7460   65.4620   26.8040 C.ar  193  TRP193      0.0012
     70  CZ2      -16.2120   68.0250   25.6920 C.ar  193  TRP193      0.0191
     71  CZ3      -17.6340   66.5320   26.9650 C.ar  193  TRP193      0.0001
     72  CH2      -17.3590   67.7940   26.4110 C.ar  193  TRP193      0.0015
     73  N        -12.5490   69.2060   34.2510 N.3   217  LYS217     -0.1245
     74  CA       -13.6720   68.3230   34.5450 C.3   217  LYS217      0.1561
     75  C        -13.5340   66.9940   33.8230 C.2   217  LYS217      0.2260
     76  O        -13.1600   66.9510   32.6510 O.2   217  LYS217     -0.2867
     77  CB       -14.9990   68.9830   34.1490 C.3   217  LYS217      0.0271
     78  CG       -16.2340   68.1880   34.5830 C.3   217  LYS217      0.0035
     79  CD       -17.5230   69.0070   34.4620 C.3   217  LYS217      0.0206
     80  CE       -17.8990   69.2520   33.0170 C.3   217  LYS217      0.1093
     81  NZ       -19.1430   70.0720   32.9120 N.3   217  LYS217     -0.1314
     82  N        -15.4020   63.2220   32.7990 N.3   219  LYS219     -0.1245
     83  CA       -16.6850   62.5550   32.6480 C.3   219  LYS219      0.1561
     84  C        -16.5780   61.2540   33.4360 C.2   219  LYS219      0.2260
     85  O        -15.5180   60.6220   33.4540 O.2   219  LYS219     -0.2867
     86  CB       -16.9680   62.2430   31.1750 C.3   219  LYS219      0.0271
     87  CG       -17.2170   63.4690   30.3190 C.3   219  LYS219      0.0035
     88  CD       -18.4090   64.2590   30.8400 C.3   219  LYS219      0.0206
     89  CE       -18.7580   65.4180   29.9220 C.3   219  LYS219      0.1093
     90  NZ       -20.0500   66.0520   30.3120 N.3   219  LYS219     -0.1314
     91  N        -18.5600   64.6910   36.0100 N.3   247  ASP247     -0.1239
     92  CA       -19.8690   64.8530   35.3800 C.3   247  ASP247      0.1674
     93  C        -20.4320   63.4840   34.9950 C.2   247  ASP247      0.2266
     94  O        -19.8170   62.7640   34.2090 O.2   247  ASP247     -0.2867
     95  CB       -19.6580   65.7130   34.1310 C.3   247  ASP247      0.1410
     96  CG       -20.9380   66.2380   33.5340 C.2   247  ASP247      0.3668
     97  OD1      -22.0200   65.6600   33.7530 O.co2 247  ASP247     -0.2456
     98  OD2      -20.8350   67.2480   32.8120 O.co2 247  ASP247     -0.2456
     99  N        -23.5670   63.0490   33.6280 N.3   249  ASN249     -0.1240
    100  CA       -24.5570   63.2090   32.5730 C.3   249  ASN249      0.1653
    101  C        -25.8700   62.4530   32.7800 C.2   249  ASN249      0.2266
    102  O        -26.3610   61.7770   31.8730 O.2   249  ASN249     -0.2867
    103  CB       -23.9380   62.8540   31.2170 C.3   249  ASN249      0.1155
    104  CG       -23.0340   63.9570   30.6940 C.2   249  ASN249      0.2627
    105  OD1      -23.5000   64.9410   30.1060 O.2   249  ASN249     -0.2716
    106  ND2      -21.7400   63.8160   30.9310 N.am  249  ASN249     -0.0877
    107  N        -27.6140   72.2060   32.6620 N.3   300  GLU300     -0.1245
    108  CA       -27.5200   72.2780   31.2040 C.3   300  GLU300      0.1567
    109  C        -28.7460   71.7630   30.4630 C.2   300  GLU300      0.2260
    110  O        -28.9760   72.1420   29.3130 O.2   300  GLU300     -0.2867
    111  CB       -26.2740   71.5500   30.7040 C.3   300  GLU300      0.0388
    112  CG       -26.3660   70.0410   30.6940 C.3   300  GLU300      0.1160
    113  CD       -25.0270   69.4320   30.3730 C.2   300  GLU300      0.3649
    114  OE1      -24.0820   69.7510   31.1100 O.co2 300  GLU300     -0.2457
    115  OE2      -24.9100   68.6610   29.3980 O.co2 300  GLU300     -0.2457
    116  N        -22.6530   76.2420   31.3550 N.3   350  HIS350     -0.1241
    117  CA       -22.3320   75.0680   30.5540 C.3   350  HIS350      0.1621
    118  C        -21.9810   75.5830   29.1630 C.2   350  HIS350      0.2264
    119  O        -22.5840   76.5480   28.6890 O.2   350  HIS350     -0.2867
    120  CB       -23.5510   74.1380   30.4810 C.3   350  HIS350      0.0745
    121  CG       -23.4960   73.1390   29.3630 C.ar  350  HIS350      0.0817
    122  ND1      -24.1610   73.3220   28.1700 N.ar  350  HIS350     -0.2268
    123  CD2      -22.8600   71.9470   29.2590 C.ar  350  HIS350      0.1154
    124  CE1      -23.9400   72.2860   27.3790 C.ar  350  HIS350      0.1986
    125  NE2      -23.1530   71.4370   28.0170 N.ar  350  HIS350     -0.2212
    126  N        -20.5140   72.9800   26.7120 N.3   352  GLY352     -0.1225
    127  CA       -20.0870   71.7870   25.9990 C.3   352  GLY352      0.1811
    128  C        -20.8560   71.5370   24.7160 C.2   352  GLY352      0.2280
    129  O        -21.7350   70.6730   24.6600 O.2   352  GLY352     -0.2866
    130  N        -17.5120   77.1620   31.5990 N.3   381  GLU381     -0.1245
    131  CA       -16.9610   75.9640   30.9860 C.3   381  GLU381      0.1567
    132  C        -16.3700   76.3020   29.6180 C.2   381  GLU381      0.2260
    133  O        -16.8180   77.2300   28.9470 O.2   381  GLU381     -0.2867
    134  CB       -18.0610   74.9080   30.8270 C.3   381  GLU381      0.0388
    135  CG       -17.6240   73.6290   30.1190 C.3   381  GLU381      0.1160
    136  CD       -18.6970   72.5550   30.1590 C.2   381  GLU381      0.3649
    137  OE1      -19.8890   72.9010   30.0160 O.co2 381  GLU381     -0.2457
    138  OE2      -18.3490   71.3660   30.3270 O.co2 381  GLU381     -0.2457
@<TRIPOS>BOND
     1    31    30    2
     2    30    29    1
     3    28    29    1
     4    29    32    1
     5    53    54    2
     6    53    52    1
     7    32    33    1
     8    24    23    2
     9    23    22    1
    10    52    51    1
    11    52    55    1
    12    33    34   ar
    13    33    35   ar
    14    22    21    1
    15    22    25    1
    16    41    40    1
    17    41    42    1
    18    41    44    1
    19    42    43    2
    20    34    36   ar
    21    46    48   ar
    22    46    45   ar
    23    35    37   ar
    24    48    50   ar
    25    55    56    1
    26    55    57    1
    27    21    27    1
    28    56    58    1
    29    44    45    1
    30    25    26    1
    31    45    47   ar
    32    36    38   ar
    33    50    49   ar
    34    37    38   ar
    35    27    26    1
    36    38    39    1
    37    47    49   ar
    38     1     2    1
    39     2     3    1
    40     3     4    2
    41    15    16    2
    42    15    14    1
    43   129   128    2
    44   128   127    1
    45    17    14    1
    46    17    18    1
    47    67    65   ar
    48    67    68   ar
    49    65    64   ar
    50    14    13    1
    51    19    18    2
    52    18    20   am
    53    68    70   ar
    54    68    66   ar
    55    70    72   ar
    56    64    63    1
    57    64    66   ar
    58   127   126    1
    59    63    60    1
    60    66    69   ar
    61    72    71   ar
    62     5     6    1
    63    69    71   ar
    64    12    10   ar
    65   124   125   ar
    66   124   122   ar
    67     8     7    2
    68    60    61    1
    69    60    59    1
    70    62    61    2
    71    10    11   ar
    72    10     9    1
    73   125   123   ar
    74     6     7    1
    75     6     9    1
    76   122   121   ar
    77   119   118    2
    78   133   132    2
    79   118   117    1
    80   123   121   ar
    81   110   109    2
    82   121   120    1
    83   115   113   ar
    84   132   131    1
    85    89    90    1
    86    89    88    1
    87   137   136   ar
    88   105   104    2
    89   135   136    1
    90   135   134    1
    91   136   138   ar
    92    87    88    1
    93    87    86    1
    94   113   112    1
    95   113   114   ar
    96   109   108    1
    97   120   117    1
    98   117   116    1
    99   112   111    1
   100   104   106   am
   101   104   103    1
   102   111   108    1
   103   134   131    1
   104   131   130    1
   105    86    83    1
   106   108   107    1
   107   103   100    1
   108   102   101    2
   109   100   101    1
   110   100    99    1
   111    83    82    1
   112    83    84    1
   113    76    75    2
   114    98    96   ar
   115    81    80    1
   116    80    79    1
   117    84    85    2
   118    96    97   ar
   119    96    95    1
   120    75    74    1
   121    95    92    1
   122    77    74    1
   123    77    78    1
   124    94    93    2
   125    73    74    1
   126    79    78    1
   127    93    92    1
   128    92    91    1
