@<TRIPOS>MOLECULE
tmp/2hxuA00.pdb
 145 134 0 0 0
SMALL
GASTEIGER

@<TRIPOS>ATOM
      1  N        -16.2900   65.0670   22.9220 N.3    21  GLY21      -0.1225
      2  CA       -17.5880   65.3190   23.5210 C.3    21  GLY21       0.1811
      3  C        -18.2520   64.0820   24.1080 C.2    21  GLY21       0.2280
      4  O        -19.3110   64.1830   24.7250 O.2    21  GLY21      -0.2866
      5  N        -19.3830   60.9290   26.4120 N.3    23  ASP23      -0.1239
      6  CA       -19.6100   60.7430   27.8410 C.3    23  ASP23       0.1674
      7  C        -20.3650   59.4340   28.0940 C.2    23  ASP23       0.2266
      8  O        -20.6260   58.6710   27.1570 O.2    23  ASP23      -0.2867
      9  CB       -20.3570   61.9550   28.4310 C.3    23  ASP23       0.1410
     10  CG       -21.7630   62.1190   27.8800 C.2    23  ASP23       0.3668
     11  OD1      -22.6090   61.2400   28.1330 O.co2  23  ASP23      -0.2456
     12  OD2      -22.0280   63.1370   27.2020 O.co2  23  ASP23      -0.2456
     13  N        -23.9880   59.8260   26.3200 N.3    26  ASN26      -0.1240
     14  CA       -23.8470   60.0940   24.8910 C.3    26  ASN26       0.1653
     15  C        -22.4360   59.6640   24.5040 C.2    26  ASN26       0.2266
     16  O        -21.4970   60.4540   24.5680 O.2    26  ASN26      -0.2867
     17  CB       -24.0270   61.5900   24.6480 C.3    26  ASN26       0.1155
     18  CG       -25.1740   62.1700   25.4580 C.2    26  ASN26       0.2627
     19  OD1      -26.3380   61.8730   25.2040 O.2    26  ASN26      -0.2716
     20  ND2      -24.8450   62.9880   26.4530 N.am   26  ASN26      -0.0877
     21  N        -21.3880   61.5700   20.3250 N.3    29  PRO29      -0.2116
     22  CA       -22.0700   62.7520   19.8000 C.3    29  PRO29       0.1372
     23  C        -21.3960   63.3870   18.5920 C.2    29  PRO29       0.2244
     24  O        -20.1730   63.3590   18.4520 O.2    29  PRO29      -0.2868
     25  CB       -22.0820   63.6970   20.9940 C.3    29  PRO29       0.0268
     26  CG       -20.7790   63.3760   21.6720 C.3    29  PRO29       0.0207
     27  CD       -20.7730   61.8560   21.6350 C.3    29  PRO29       0.0892
     28  N        -21.4540   66.9050   17.3920 N.3    31  TYR31      -0.1241
     29  CA       -21.8450   68.2770   17.7030 C.3    31  TYR31       0.1605
     30  C        -22.5250   68.9290   16.5090 C.2    31  TYR31       0.2264
     31  O        -21.9320   69.0630   15.4390 O.2    31  TYR31      -0.2867
     32  CB       -20.6240   69.1000   18.1290 C.3    31  TYR31       0.0534
     33  CG       -20.1850   68.9000   19.5700 C.ar   31  TYR31      -0.0201
     34  CD1      -19.2670   69.7720   20.1560 C.ar   31  TYR31      -0.0009
     35  CD2      -20.6900   67.8560   20.3520 C.ar   31  TYR31      -0.0009
     36  CE1      -18.8670   69.6210   21.4810 C.ar   31  TYR31       0.0417
     37  CE2      -20.2910   67.6930   21.6860 C.ar   31  TYR31       0.0417
     38  CZ       -19.3790   68.5850   22.2400 C.ar   31  TYR31       0.1957
     39  OH       -18.9830   68.4600   23.5520 O.3    31  TYR31      -0.2866
     40  N        -28.1800   73.7810   19.9450 N.3    53  PHE53      -0.1241
     41  CA       -27.1400   72.7630   19.9470 C.3    53  PHE53       0.1605
     42  C        -27.7230   71.3650   20.1470 C.2    53  PHE53       0.2264
     43  O        -28.4720   71.1360   21.0930 O.2    53  PHE53      -0.2867
     44  CB       -26.1250   73.0390   21.0640 C.3    53  PHE53       0.0534
     45  CG       -25.1720   71.9030   21.3000 C.ar   53  PHE53      -0.0203
     46  CD1      -24.3090   71.4850   20.2900 C.ar   53  PHE53      -0.0042
     47  CD2      -25.1690   71.2180   22.5110 C.ar   53  PHE53      -0.0042
     48  CE1      -23.4590   70.3950   20.4810 C.ar   53  PHE53      -0.0003
     49  CE2      -24.3240   70.1290   22.7100 C.ar   53  PHE53      -0.0003
     50  CZ       -23.4690   69.7160   21.6940 C.ar   53  PHE53      -0.0000
     51  N        -26.7680   66.8580   19.1980 N.3    55  ILE55      -0.1245
     52  CA       -25.6050   66.0100   18.9820 C.3    55  ILE55       0.1561
     53  C        -25.6930   65.0290   17.8150 C.2    55  ILE55       0.2260
     54  O        -25.1520   63.9250   17.8770 O.2    55  ILE55      -0.2867
     55  CB       -25.2210   65.2600   20.2880 C.3    55  ILE55       0.0252
     56  CG1      -26.4440   64.5570   20.8850 C.3    55  ILE55       0.0019
     57  CG2      -24.6480   66.2570   21.3000 C.3    55  ILE55       0.0019
     58  CD1      -26.1110   63.6300   22.0540 C.3    55  ILE55       0.0001
     59  N        -13.2650   71.0020   29.8660 N.3   189  THR189     -0.1218
     60  CA       -13.7700   69.6350   29.9150 C.3   189  THR189      0.1862
     61  C        -13.1690   68.7820   28.7970 C.2   189  THR189      0.2287
     62  O        -13.2840   67.5540   28.8030 O.2   189  THR189     -0.2866
     63  CB       -15.3090   69.6500   29.7770 C.3   189  THR189      0.1770
     64  OG1      -15.8620   70.4620   30.8200 O.3   189  THR189     -0.2211
     65  CG2      -15.8880   68.2410   29.8730 C.3   189  THR189      0.0375
     66  N        -13.2460   63.6820   28.0430 N.3   193  TRP193     -0.1241
     67  CA       -14.2530   62.8970   27.3320 C.3   193  TRP193      0.1605
     68  C        -14.0250   61.4090   27.6010 C.2   193  TRP193      0.2264
     69  O        -12.8950   60.9210   27.5710 O.2   193  TRP193     -0.2867
     70  CB       -14.2060   63.2200   25.8400 C.3   193  TRP193      0.0550
     71  CG       -14.4140   64.6900   25.5680 C.ar  193  TRP193      0.0003
     72  CD1      -13.6150   65.5030   24.8140 C.ar  193  TRP193      0.0946
     73  CD2      -15.4950   65.5140   26.0370 C.ar  193  TRP193      0.0152
     74  NE1      -14.1290   66.7790   24.7830 N.ar  193  TRP193     -0.2442
     75  CE2      -15.2820   66.8140   25.5240 C.ar  193  TRP193      0.0810
     76  CE3      -16.6230   65.2780   26.8380 C.ar  193  TRP193      0.0012
     77  CZ2      -16.1560   67.8790   25.7860 C.ar  193  TRP193      0.0191
     78  CZ3      -17.4950   66.3370   27.0980 C.ar  193  TRP193      0.0001
     79  CH2      -17.2530   67.6230   26.5720 C.ar  193  TRP193      0.0015
     80  N        -12.6120   69.0320   34.0650 N.3   217  LYS217     -0.1245
     81  CA       -13.7480   68.1590   34.3490 C.3   217  LYS217      0.1561
     82  C        -13.6500   66.8690   33.5490 C.2   217  LYS217      0.2260
     83  O        -13.2970   66.8850   32.3690 O.2   217  LYS217     -0.2867
     84  CB       -15.0690   68.8660   34.0220 C.3   217  LYS217      0.0271
     85  CG       -16.3110   68.0720   34.4430 C.3   217  LYS217      0.0035
     86  CD       -17.5830   68.9060   34.3340 C.3   217  LYS217      0.0206
     87  CE       -17.9780   69.1460   32.8790 C.3   217  LYS217      0.1093
     88  NZ       -19.0980   70.1220   32.7670 N.3   217  LYS217     -0.1314
     89  N        -18.5590   64.5670   35.6680 N.3   247  ASP247     -0.1239
     90  CA       -19.8720   64.7180   35.0460 C.3   247  ASP247      0.1674
     91  C        -20.4480   63.3420   34.7210 C.2   247  ASP247      0.2266
     92  O        -19.8800   62.6170   33.9080 O.2   247  ASP247     -0.2867
     93  CB       -19.6930   65.5170   33.7570 C.3   247  ASP247      0.1410
     94  CG       -20.9740   66.1210   33.2560 C.2   247  ASP247      0.3668
     95  OD1      -22.0520   65.5120   33.4340 O.co2 247  ASP247     -0.2456
     96  OD2      -20.8810   67.2110   32.6600 O.co2 247  ASP247     -0.2456
     97  N        -23.5320   62.9060   33.4990 N.3   249  ASN249     -0.1240
     98  CA       -24.5050   63.0710   32.4270 C.3   249  ASN249      0.1653
     99  C        -25.8280   62.3240   32.6160 C.2   249  ASN249      0.2266
    100  O        -26.3220   61.6770   31.6890 O.2   249  ASN249     -0.2867
    101  CB       -23.8610   62.6930   31.0900 C.3   249  ASN249      0.1155
    102  CG       -22.8550   63.7360   30.6250 C.2   249  ASN249      0.2627
    103  OD1      -23.2270   64.7720   30.0680 O.2   249  ASN249     -0.2716
    104  ND2      -21.5800   63.4810   30.8810 N.am  249  ASN249     -0.0877
    105  N        -21.5510   66.7510   38.4200 N.3   273  GLU273     -0.1245
    106  CA       -22.5520   67.3290   37.5300 C.3   273  GLU273      0.1567
    107  C        -23.5600   66.2940   37.0450 C.2   273  GLU273      0.2260
    108  O        -23.1870   65.1960   36.6390 O.2   273  GLU273     -0.2867
    109  CB       -21.8370   67.9590   36.3330 C.3   273  GLU273      0.0388
    110  CG       -22.7020   68.7920   35.4030 C.3   273  GLU273      0.1160
    111  CD       -21.8540   69.7130   34.5420 C.2   273  GLU273      0.3649
    112  OE1      -20.8500   70.2370   35.0600 O.co2 273  GLU273     -0.2457
    113  OE2      -22.1840   69.9350   33.3600 O.co2 273  GLU273     -0.2457
    114  N        -27.5360   72.0940   32.4950 N.3   300  GLU300     -0.1245
    115  CA       -27.4560   72.1680   31.0340 C.3   300  GLU300      0.1567
    116  C        -28.6830   71.6540   30.2920 C.2   300  GLU300      0.2260
    117  O        -28.9140   72.0310   29.1420 O.2   300  GLU300     -0.2867
    118  CB       -26.2130   71.4460   30.5260 C.3   300  GLU300      0.0388
    119  CG       -26.2880   69.9340   30.5450 C.3   300  GLU300      0.1160
    120  CD       -24.9290   69.3440   30.2920 C.2   300  GLU300      0.3649
    121  OE1      -24.0210   69.7030   31.0540 O.co2 300  GLU300     -0.2457
    122  OE2      -24.7570   68.5530   29.3430 O.co2 300  GLU300     -0.2457
    123  N        -22.6600   76.2740   31.2550 N.3   350  HIS350     -0.1241
    124  CA       -22.3690   75.0930   30.4510 C.3   350  HIS350      0.1621
    125  C        -22.0060   75.5670   29.0460 C.2   350  HIS350      0.2264
    126  O        -22.6070   76.5080   28.5320 O.2   350  HIS350     -0.2867
    127  CB       -23.6030   74.1850   30.3960 C.3   350  HIS350      0.0745
    128  CG       -23.5440   73.1390   29.3270 C.ar  350  HIS350      0.0817
    129  ND1      -24.1720   73.2830   28.1080 N.ar  350  HIS350     -0.2268
    130  CD2      -22.9440   71.9250   29.2990 C.ar  350  HIS350      0.1154
    131  CE1      -23.9630   72.2030   27.3770 C.ar  350  HIS350      0.1986
    132  NE2      -23.2210   71.3630   28.0760 N.ar  350  HIS350     -0.2212
    133  N        -20.4760   72.8780   26.7610 N.3   352  GLY352     -0.1225
    134  CA       -20.0460   71.6580   26.0980 C.3   352  GLY352      0.1811
    135  C        -20.8300   71.3480   24.8370 C.2   352  GLY352      0.2280
    136  O        -21.6280   70.4090   24.8020 O.2   352  GLY352     -0.2866
    137  N        -17.5370   77.2280   31.5210 N.3   381  GLU381     -0.1245
    138  CA       -16.9880   76.0400   30.8910 C.3   381  GLU381      0.1567
    139  C        -16.4080   76.3720   29.5250 C.2   381  GLU381      0.2260
    140  O        -16.8550   77.3030   28.8520 O.2   381  GLU381     -0.2867
    141  CB       -18.0630   74.9630   30.7320 C.3   381  GLU381      0.0388
    142  CG       -17.5740   73.7300   29.9850 C.3   381  GLU381      0.1160
    143  CD       -18.5940   72.6130   29.9640 C.2   381  GLU381      0.3649
    144  OE1      -19.8080   72.9140   29.9370 O.co2 381  GLU381     -0.2457
    145  OE2      -18.1800   71.4340   29.9620 O.co2 381  GLU381     -0.2457
@<TRIPOS>BOND
     1    31    30    2
     2    30    29    1
     3    28    29    1
     4    29    32    1
     5    53    54    2
     6    53    52    1
     7    32    33    1
     8    24    23    2
     9    23    22    1
    10    52    51    1
    11    52    55    1
    12    33    34   ar
    13    33    35   ar
    14    22    21    1
    15    22    25    1
    16    40    41    1
    17    41    42    1
    18    41    44    1
    19    42    43    2
    20    34    36   ar
    21    55    56    1
    22    55    57    1
    23    46    48   ar
    24    46    45   ar
    25    21    27    1
    26    35    37   ar
    27    48    50   ar
    28    56    58    1
    29    25    26    1
    30    44    45    1
    31    45    47   ar
    32    36    38   ar
    33    27    26    1
    34    37    38   ar
    35    50    49   ar
    36    38    39    1
    37    47    49   ar
    38     1     2    1
    39     2     3    1
    40     3     4    2
    41    15    16    2
    42    15    14    1
    43    17    14    1
    44    17    18    1
    45    74    72   ar
    46    74    75   ar
    47   136   135    2
    48    72    71   ar
    49   135   134    1
    50    14    13    1
    51    19    18    2
    52    18    20   am
    53    75    77   ar
    54    75    73   ar
    55    71    70    1
    56    71    73   ar
    57    77    79   ar
    58    70    67    1
    59    73    76   ar
    60   134   133    1
    61     5     6    1
    62    79    78   ar
    63    76    78   ar
    64     8     7    2
    65    12    10   ar
    66    67    68    1
    67    67    66    1
    68   131   132   ar
    69   131   129   ar
    70    69    68    2
    71     6     7    1
    72     6     9    1
    73    10    11   ar
    74    10     9    1
    75   132   130   ar
    76   129   128   ar
    77   126   125    2
    78    61    62    2
    79    61    60    1
    80   140   139    2
    81   125   124    1
    82   117   116    2
    83   130   128   ar
    84   128   127    1
    85   122   120   ar
    86   139   138    1
    87    63    65    1
    88    63    60    1
    89    63    64    1
    90    59    60    1
    91   144   143   ar
    92   145   143   ar
    93   143   142    1
    94   142   141    1
    95   103   102    2
    96   120   119    1
    97   120   121   ar
    98   116   115    1
    99   127   124    1
   100   124   123    1
   101   118   119    1
   102   118   115    1
   103   102   104   am
   104   102   101    1
   105   141   138    1
   106   138   137    1
   107   115   114    1
   108   101    98    1
   109   100    99    2
   110    83    82    2
   111    98    99    1
   112    98    97    1
   113    96    94   ar
   114    88    87    1
   115    87    86    1
   116    94    95   ar
   117    94    93    1
   118   113   111   ar
   119    82    81    1
   120    93    90    1
   121    92    91    2
   122    84    81    1
   123    84    85    1
   124    80    81    1
   125    86    85    1
   126   111   112   ar
   127   111   110    1
   128    91    90    1
   129    90    89    1
   130   110   109    1
   131   109   106    1
   132   108   107    2
   133   107   106    1
   134   106   105    1
