@<TRIPOS>MOLECULE
tmp/2hxzB00.pdb
 134 131 0 0 0
SMALL
GASTEIGER

@<TRIPOS>ATOM
      1  N         44.0160 -111.6870    9.8090 N.3    20  GLN20      -0.1245
      2  CA        45.2750 -111.9050   10.5100 C.3    20  GLN20       0.1566
      3  C         45.1100 -112.5220   11.9090 C.2    20  GLN20       0.2260
      4  O         46.0180 -113.1660   12.4220 O.2    20  GLN20      -0.2867
      5  CB        46.0620 -110.5950   10.6020 C.3    20  GLN20       0.0367
      6  CG        45.5220 -109.5760   11.5750 C.3    20  GLN20       0.0905
      7  CD        46.3550 -108.3070   11.5540 C.2    20  GLN20       0.2608
      8  OE1       46.1890 -107.4710   10.6740 O.2    20  GLN20      -0.2717
      9  NE2       47.2560 -108.1660   12.5150 N.am   20  GLN20      -0.0878
     10  N         50.3810 -110.3740   14.9230 N.3    24  GLY24      -0.1225
     11  CA        50.6860 -109.0560   14.3800 C.3    24  GLY24       0.1811
     12  C         51.3680 -109.1370   13.0310 C.2    24  GLY24       0.2280
     13  O         52.5380 -108.7680   12.8940 O.2    24  GLY24      -0.2866
     14  N         50.1240 -107.8260   10.0620 N.3    26  CYS26      -0.1221
     15  CA        49.5480 -106.8780    9.1110 C.3    26  CYS26       0.1808
     16  C         50.5890 -106.4830    8.0680 C.2    26  CYS26       0.2601
     17  O         50.2850 -106.3650    6.8860 O.2    26  CYS26      -0.2717
     18  CB        49.0340 -105.6340    9.8420 C.3    26  CYS26       0.0970
     19  SG        50.2910 -104.7960   10.7720 S.3    26  CYS26      -0.0800
     20  N         51.8130 -106.2690    8.5330 N.am   27  TRP27      -0.1976
     21  CA        52.9550 -105.9840    7.6670 C.3    27  TRP27       0.1640
     22  C         53.1240 -107.0320    6.5690 C.2    27  TRP27       0.2290
     23  O         53.3920 -106.6980    5.4150 O.2    27  TRP27      -0.2864
     24  CB        54.2390 -105.8820    8.5030 C.3    27  TRP27       0.0576
     25  CG        54.6050 -107.1410    9.1950 C.ar   27  TRP27       0.0006
     26  CD1       54.0590 -107.6320   10.3460 C.ar   27  TRP27       0.0946
     27  CD2       55.5890 -108.1010    8.7790 C.ar   27  TRP27       0.0152
     28  NE1       54.6560 -108.8270   10.6820 N.ar   27  TRP27      -0.2442
     29  CE2       55.5880 -109.1420    9.7310 C.ar   27  TRP27       0.0810
     30  CE3       56.4720 -108.1810    7.6970 C.ar   27  TRP27       0.0012
     31  CZ2       56.4360 -110.2520    9.6300 C.ar   27  TRP27       0.0191
     32  CZ3       57.3140 -109.2870    7.6000 C.ar   27  TRP27       0.0001
     33  CH2       57.2930 -110.3020    8.5590 C.ar   27  TRP27       0.0015
     34  N         64.9850 -107.2030   10.4800 N.3    63  GLY63      -0.1225
     35  CA        64.4400 -106.3890   11.5580 C.3    63  GLY63       0.1811
     36  C         62.9930 -106.6870   11.8970 C.2    63  GLY63       0.2280
     37  O         62.3120 -105.8510   12.4820 O.2    63  GLY63      -0.2866
     38  N         59.8080 -109.3080   13.4390 N.3    65  LYS65      -0.1245
     39  CA        59.5770 -110.0900   14.6530 C.3    65  LYS65       0.1561
     40  C         58.3080 -110.9260   14.5690 C.2    65  LYS65       0.2260
     41  O         57.6240 -111.1160   15.5640 O.2    65  LYS65      -0.2867
     42  CB        59.5180 -109.1520   15.8630 C.3    65  LYS65       0.0271
     43  CG        60.8000 -108.3760   16.0760 C.3    65  LYS65       0.0035
     44  CD        60.7940 -107.6530   17.3980 C.3    65  LYS65       0.0206
     45  CE        62.0370 -106.7940   17.5520 C.3    65  LYS65       0.1093
     46  NZ        62.0730 -106.1310   18.8820 N.3    65  LYS65      -0.1314
     47  N         54.8810 -112.4830   14.5120 N.3    67  CYS67      -0.1221
     48  CA        53.6040 -112.0040   15.0390 C.3    67  CYS67       0.1808
     49  C         53.7520 -110.7910   15.9650 C.2    67  CYS67       0.2601
     50  O         52.7570 -110.2630   16.4270 O.2    67  CYS67      -0.2717
     51  CB        52.8640 -113.1220   15.7730 C.3    67  CYS67       0.0970
     52  SG        52.2800 -114.4410   14.6940 S.3    67  CYS67      -0.0800
     53  N         54.9780 -110.3690   16.2510 N.am   68  ASN68      -0.1960
     54  CA        55.2150 -109.1180   16.9870 C.3    68  ASN68       0.1819
     55  C         55.6380 -107.9690   16.0690 C.2    68  ASN68       0.2622
     56  O         56.2740 -107.0140   16.5130 O.2    68  ASN68      -0.2715
     57  CB        56.2590 -109.3330   18.0860 C.3    68  ASN68       0.1195
     58  CG        55.7330 -110.1720   19.2290 C.2    68  ASN68       0.2630
     59  OD1       54.5310 -110.1540   19.5290 O.2    68  ASN68      -0.2716
     60  ND2       56.6280 -110.9270   19.8710 N.am   68  ASN68      -0.0877
     61  N         55.2960 -108.0810   14.7860 N.am   69  GLY69      -0.1940
     62  CA        55.4390 -106.9850   13.8330 C.3    69  GLY69       0.2014
     63  C         56.6310 -107.0680   12.9070 C.2    69  GLY69       0.2639
     64  O         57.5480 -107.8610   13.1060 O.2    69  GLY69      -0.2714
     65  N         56.6150 -106.2160   11.8880 N.am   70  GLY70      -0.1939
     66  CA        57.6990 -106.1530   10.9180 C.3    70  GLY70       0.2014
     67  C         57.5450 -104.9820    9.9710 C.2    70  GLY70       0.2639
     68  O         56.7030 -104.1190   10.1780 O.2    70  GLY70      -0.2714
     69  N         58.3750 -104.9540    8.9350 N.am   71  PHE71      -0.1959
     70  CA        58.3260 -103.9140    7.9280 C.3    71  PHE71       0.1771
     71  C         57.9770 -104.5140    6.5790 C.2    71  PHE71       0.2619
     72  O         58.4910 -105.5660    6.2030 O.2    71  PHE71      -0.2715
     73  CB        59.6790 -103.2210    7.7970 C.3    71  PHE71       0.0574
     74  CG        60.2180 -102.6780    9.0820 C.ar   71  PHE71      -0.0200
     75  CD1       59.7420 -101.4810    9.5950 C.ar   71  PHE71      -0.0042
     76  CD2       61.2230 -103.3430    9.7610 C.ar   71  PHE71      -0.0042
     77  CE1       60.2470 -100.9640   10.7810 C.ar   71  PHE71      -0.0003
     78  CE2       61.7380 -102.8330   10.9430 C.ar   71  PHE71      -0.0003
     79  CZ        61.2440 -101.6440   11.4560 C.ar   71  PHE71      -0.0000
     80  N         57.1240 -103.8230    5.8350 N.am   72  MET72      -0.1977
     81  CA        56.8220 -104.2090    4.4660 C.3    72  MET72       0.1605
     82  C         58.0710 -104.1070    3.5850 C.2    72  MET72       0.2287
     83  O         58.3220 -104.9870    2.7620 O.2    72  MET72      -0.2864
     84  CB        55.6770 -103.3640    3.9020 C.3    72  MET72       0.0413
     85  CG        54.3300 -103.6290    4.5730 C.3    72  MET72       0.0598
     86  SD        54.0400 -102.6790    6.0800 S.3    72  MET72      -0.1393
     87  CE        53.5640 -101.1080    5.3600 C.3    72  MET72       0.0692
     88  N         51.5440  -97.6390    6.0210 N.3   138  GLY138     -0.1225
     89  CA        51.2170  -97.7200    7.4320 C.3   138  GLY138      0.1811
     90  C         50.1860  -96.6710    7.7580 C.2   138  GLY138      0.2280
     91  O         50.1470  -95.6050    7.1220 O.2   138  GLY138     -0.2866
     92  N         52.3160  -94.2230   12.6220 N.3   163  VAL163     -0.1231
     93  CA        51.6750  -95.4310   12.0940 C.3   163  VAL163      0.1692
     94  C         51.9050  -96.6390   12.9950 C.2   163  VAL163      0.2592
     95  O         52.9650  -96.7950   13.5930 O.2   163  VAL163     -0.2718
     96  CB        52.1410  -95.7680   10.6480 C.3   163  VAL163      0.0266
     97  CG1       51.9770  -94.5490    9.7440 C.3   163  VAL163      0.0020
     98  CG2       53.5770  -96.2710   10.6260 C.3   163  VAL163      0.0020
     99  N         50.8980  -97.4980   13.0750 N.am  164  ASN164     -0.1960
    100  CA        50.9710  -98.7070   13.8870 C.3   164  ASN164      0.1819
    101  C         50.3180  -99.9100   13.2170 C.2   164  ASN164      0.2621
    102  O         50.2130 -100.9550   13.8370 O.2   164  ASN164     -0.2715
    103  CB        50.2870  -98.4640   15.2360 C.3   164  ASN164      0.1195
    104  CG        49.0250  -97.6710   15.0900 C.2   164  ASN164      0.2630
    105  OD1       48.0840  -98.1030   14.4160 O.2   164  ASN164     -0.2716
    106  ND2       49.0210  -96.4540   15.6440 N.am  164  ASN164     -0.0877
    107  N         49.8980  -99.7520   11.9630 N.am  165  HIS165     -0.1959
    108  CA        49.1360 -100.7640   11.2660 C.3   165  HIS165      0.1787
    109  C         49.4390 -100.7510    9.7790 C.2   165  HIS165      0.2620
    110  O         49.3200  -99.7060    9.1280 O.2   165  HIS165     -0.2715
    111  CB        47.6500 -100.5230   11.4850 C.3   165  HIS165      0.0785
    112  CG        46.7780 -101.5800   10.8950 C.ar  165  HIS165      0.0821
    113  ND1       47.0770 -102.9250   10.9750 N.ar  165  HIS165     -0.2267
    114  CD2       45.6060 -101.4900   10.2290 C.ar  165  HIS165      0.1154
    115  CE1       46.1290 -103.6160   10.3700 C.ar  165  HIS165      0.1986
    116  NE2       45.2260 -102.7690    9.9090 N.ar  165  HIS165     -0.2212
    117  N         49.8060 -101.9210    9.2460 N.am  166  GLY166     -0.1954
    118  CA        50.1630 -102.0740    7.8400 C.3   166  GLY166      0.1869
    119  C         48.9640 -102.4790    7.0160 C.2   166  GLY166      0.2309
    120  O         48.2380 -103.4130    7.3700 O.2   166  GLY166     -0.2863
    121  N         41.6560 -107.8090    8.3240 N.3   187  TRP187     -0.1241
    122  CA        40.8540 -108.1720    9.4940 C.3   187  TRP187      0.1605
    123  C         39.5700 -108.8730    9.0560 C.2   187  TRP187      0.2264
    124  O         38.5410 -108.7910    9.7470 O.2   187  TRP187     -0.2867
    125  CB        40.4820 -106.9300   10.3180 C.3   187  TRP187      0.0550
    126  CG        41.6460 -106.1850   10.9350 C.ar  187  TRP187      0.0003
    127  CD1       42.9520 -106.5720   10.9830 C.ar  187  TRP187      0.0946
    128  CD2       41.5720 -104.9350   11.6260 C.ar  187  TRP187      0.0152
    129  NE1       43.7070 -105.6180   11.6450 N.ar  187  TRP187     -0.2442
    130  CE2       42.8790 -104.6030   12.0400 C.ar  187  TRP187      0.0810
    131  CE3       40.5270 -104.0580   11.9220 C.ar  187  TRP187      0.0012
    132  CZ2       43.1660 -103.4300   12.7440 C.ar  187  TRP187      0.0191
    133  CZ3       40.8150 -102.8860   12.6080 C.ar  187  TRP187      0.0001
    134  CH2       42.1210 -102.5870   13.0100 C.ar  187  TRP187      0.0015
@<TRIPOS>BOND
     1    83    82    2
     2    82    81    1
     3    84    81    1
     4    84    85    1
     5    81    80    1
     6    85    86    1
     7    87    86    1
     8    23    22    2
     9    80    71   am
    10    88    89    1
    11    72    71    2
    12    22    21    1
    13    71    70    1
    14    17    16    2
    15   119   120    2
    16   119   118    1
    17    91    90    2
    18    89    90    1
    19    32    30   ar
    20    32    33   ar
    21    21    24    1
    22    21    20    1
    23    30    27   ar
    24    73    70    1
    25    73    74    1
    26   118   117    1
    27    70    69    1
    28    16    20   am
    29    16    15    1
    30   121   122    1
    31    24    25    1
    32    33    31   ar
    33    27    25   ar
    34    27    29   ar
    35    69    67   am
    36   123   122    1
    37   123   124    2
    38    74    75   ar
    39    74    76   ar
    40    15    18    1
    41    15    14    1
    42   110   109    2
    43    25    26   ar
    44   117   109   am
    45   122   125    1
    46    75    77   ar
    47    31    29   ar
    48    29    28   ar
    49    97    96    1
    50    76    78   ar
    51   109   108    1
    52     1     2    1
    53    18    19    1
    54   116   114   ar
    55   116   115   ar
    56    67    68    2
    57    67    66    1
    58   114   112   ar
    59   125   126    1
    60    26    28   ar
    61   115   113   ar
    62    34    35    1
    63     2     5    1
    64     2     3    1
    65     5     6    1
    66    98    96    1
    67    96    93    1
    68     8     7    2
    69    77    79   ar
    70   112   113   ar
    71   112   111    1
    72    66    65    1
    73   126   127   ar
    74   126   128   ar
    75    78    79   ar
    76   127   129   ar
    77   108   111    1
    78   108   107    1
    79     7     6    1
    80     7     9   am
    81    35    36    1
    82   128   131   ar
    83   128   130   ar
    84   129   130   ar
    85    65    63   am
    86    36    37    2
    87     3     4    2
    88   131   133   ar
    89   107   101   am
    90   130   132   ar
    91    93    92    1
    92    93    94    1
    93   133   134   ar
    94   132   134   ar
    95    13    12    2
    96    63    64    2
    97    63    62    1
    98    94    99   am
    99    94    95    2
   100    12    11    1
   101    99   100    1
   102   101   102    2
   103   101   100    1
   104    38    39    1
   105    62    61    1
   106   100   103    1
   107    11    10    1
   108   105   104    2
   109    47    48    1
   110    40    39    1
   111    40    41    2
   112    39    42    1
   113    52    51    1
   114    61    55   am
   115    48    51    1
   116    48    49    1
   117   104   103    1
   118   104   106   am
   119    42    43    1
   120    49    53   am
   121    49    50    2
   122    55    56    2
   123    55    54    1
   124    43    44    1
   125    53    54    1
   126    54    57    1
   127    44    45    1
   128    45    46    1
   129    57    58    1
   130    58    59    2
   131    58    60   am
