@<TRIPOS>MOLECULE
tmp/2hy0A00.pdb
 157 147 0 0 0
SMALL
GASTEIGER

@<TRIPOS>ATOM
      1  N         18.2740   -6.3190   -0.3420 N.3    12  GLN12      -0.1231
      2  CA        19.1030   -7.0340    0.6210 C.3    12  GLN12       0.1698
      3  C         18.4600   -7.2120    1.9880 C.2    12  GLN12       0.2593
      4  O         17.4910   -6.5520    2.3230 O.2    12  GLN12      -0.2718
      5  CB        20.4430   -6.3200    0.8030 C.3    12  GLN12       0.0381
      6  CG        20.3630   -5.0710    1.6590 C.3    12  GLN12       0.0905
      7  CD        21.7300   -4.5290    2.0180 C.2    12  GLN12       0.2608
      8  OE1       22.5950   -5.2670    2.4700 O.2    12  GLN12      -0.2717
      9  NE2       21.9260   -3.2300    1.8230 N.am   12  GLN12      -0.0878
     10  N         19.0320   -8.1140    2.7760 N.am   13  THR13      -0.1939
     11  CA        18.5340   -8.3880    4.1130 C.3    13  THR13       0.2028
     12  C         19.2630   -7.5250    5.1340 C.2    13  THR13       0.2642
     13  O         20.4680   -7.6300    5.3020 O.2    13  THR13      -0.2714
     14  CB        18.7210   -9.8700    4.4760 C.3    13  THR13       0.1808
     15  OG1       17.9280  -10.6750    3.5960 O.3    13  THR13      -0.2208
     16  CG2       18.2990  -10.1240    5.9140 C.3    13  THR13       0.0379
     17  N         18.5080   -6.6630    5.8020 N.am   14  LEU14      -0.1977
     18  CA        19.0570   -5.7690    6.8100 C.3    14  LEU14       0.1596
     19  C         19.1900   -6.4490    8.1700 C.2    14  LEU14       0.2287
     20  O         20.0010   -6.0480    8.9940 O.2    14  LEU14      -0.2864
     21  CB        18.1680   -4.5310    6.9330 C.3    14  LEU14       0.0297
     22  CG        18.0680   -3.6880    5.6620 C.3    14  LEU14       0.0022
     23  CD1       17.0750   -2.5570    5.8660 C.3    14  LEU14       0.0001
     24  CD2       19.4460   -3.1470    5.3100 C.3    14  LEU14       0.0001
     25  N         13.9260   -8.2580    7.9680 N.3    22  VAL22      -0.1245
     26  CA        13.8040   -6.8990    7.4950 C.3    22  VAL22       0.1561
     27  C         14.6910   -6.7710    6.2780 C.2    22  VAL22       0.2260
     28  O         15.8470   -7.1410    6.3200 O.2    22  VAL22      -0.2867
     29  CB        14.2520   -5.8900    8.5690 C.3    22  VAL22       0.0252
     30  CG1       14.0750   -4.4770    8.0500 C.3    22  VAL22       0.0019
     31  CG2       13.4550   -6.0990    9.8410 C.3    22  VAL22       0.0019
     32  N         12.6190    0.3470    4.5260 N.3    35  ALA35      -0.1245
     33  CA        12.8600   -0.9610    5.1120 C.3    35  ALA35       0.1562
     34  C         11.5220   -1.6830    5.1770 C.2    35  ALA35       0.2260
     35  O         10.5400   -1.1320    5.6480 O.2    35  ALA35      -0.2867
     36  CB        13.4470   -0.8140    6.5080 C.3    35  ALA35       0.0290
     37  N          9.5350   -4.8290    6.7040 N.3    37  LYS37      -0.1245
     38  CA         9.5200   -5.8800    7.7080 C.3    37  LYS37       0.1561
     39  C          8.5490   -6.9410    7.2080 C.2    37  LYS37       0.2260
     40  O          7.3670   -6.6770    7.0470 O.2    37  LYS37      -0.2867
     41  CB         9.0490   -5.3140    9.0510 C.3    37  LYS37       0.0271
     42  CG         8.9160   -6.3400   10.1740 C.3    37  LYS37       0.0035
     43  CD         8.3900   -5.5700   11.3890 C.3    37  LYS37       0.0206
     44  CE         7.9640   -6.4250   12.5760 C.3    37  LYS37       0.1093
     45  NZ         9.0750   -7.2740   13.0820 N.3    37  LYS37      -0.1314
     46  N          1.0650   -3.6510   16.6350 N.3    47  GLU47      -0.1245
     47  CA         2.2780   -2.9710   16.1970 C.3    47  GLU47       0.1567
     48  C          1.9570   -1.9590   15.1040 C.2    47  GLU47       0.2260
     49  O          2.4650   -0.8460   15.1120 O.2    47  GLU47      -0.2867
     50  CB         3.2960   -3.9780   15.6670 C.3    47  GLU47       0.0388
     51  CG         4.6890   -3.3770   15.4510 C.3    47  GLU47       0.1160
     52  CD         5.6720   -4.3650   14.8590 C.2    47  GLU47       0.3649
     53  OE1        5.6760   -5.5340   15.2990 O.co2  47  GLU47      -0.2457
     54  OE2        6.4490   -3.9700   13.9650 O.co2  47  GLU47      -0.2457
     55  N         11.3300    5.7630   14.2020 N.3    60  VAL60      -0.1245
     56  CA        11.2540    5.1870   12.8640 C.3    60  VAL60       0.1561
     57  C          9.8690    5.4110   12.2580 C.2    60  VAL60       0.2260
     58  O          8.8670    4.9910   12.8120 O.2    60  VAL60      -0.2867
     59  CB        11.5680    3.6730   12.8970 C.3    60  VAL60       0.0252
     60  CG1       11.2060    3.0310   11.5630 C.3    60  VAL60       0.0019
     61  CG2       13.0510    3.4640   13.1970 C.3    60  VAL60       0.0019
     62  N          8.6320    0.5930    6.5790 N.3    76  LEU76      -0.1231
     63  CA         9.1880    1.4850    7.5830 C.3    76  LEU76       0.1693
     64  C         10.3810    2.2820    7.0730 C.2    76  LEU76       0.2592
     65  O         10.9210    2.0120    6.0080 O.2    76  LEU76      -0.2718
     66  CB         9.5980    0.6560    8.7990 C.3    76  LEU76       0.0284
     67  CG         8.4380   -0.1520    9.3910 C.3    76  LEU76       0.0019
     68  CD1        8.9540   -1.4310   10.0230 C.3    76  LEU76       0.0001
     69  CD2        7.6930    0.7020   10.3990 C.3    76  LEU76       0.0001
     70  N         10.7890    3.2650    7.8630 N.am   77  GLU77      -0.1966
     71  CA        11.9010    4.1300    7.5090 C.3    77  GLU77       0.1733
     72  C         13.2330    3.3970    7.4000 C.2    77  GLU77       0.2616
     73  O         13.5720    2.5550    8.2380 O.2    77  GLU77      -0.2715
     74  CB        12.0100    5.2550    8.5420 C.3    77  GLU77       0.0429
     75  CG        13.0640    6.3080    8.2330 C.3    77  GLU77       0.1163
     76  CD        13.0620    7.4360    9.2480 C.2    77  GLU77       0.3649
     77  OE1       13.8980    8.3540    9.1200 O.co2  77  GLU77      -0.2457
     78  OE2       12.2250    7.4030   10.1740 O.co2  77  GLU77      -0.2457
     79  N         13.9850    3.7070    6.3500 N.am   78  TYR78      -0.1960
     80  CA        15.2910    3.1010    6.1730 C.3    78  TYR78       0.1771
     81  C         16.3350    3.9950    6.8260 C.2    78  TYR78       0.2620
     82  O         16.4260    5.1900    6.5310 O.2    78  TYR78      -0.2715
     83  CB        15.6310    2.9230    4.6900 C.3    78  TYR78       0.0574
     84  CG        17.0490    2.4440    4.4660 C.ar   78  TYR78      -0.0198
     85  CD1       17.5030    1.2560    5.0260 C.ar   78  TYR78      -0.0009
     86  CD2       17.9400    3.1900    3.7100 C.ar   78  TYR78      -0.0009
     87  CE1       18.8060    0.8290    4.8390 C.ar   78  TYR78       0.0417
     88  CE2       19.2380    2.7720    3.5190 C.ar   78  TYR78       0.0417
     89  CZ        19.6680    1.5960    4.0850 C.ar   78  TYR78       0.1957
     90  OH        20.9760    1.2090    3.9120 O.3    78  TYR78      -0.2866
     91  N         17.1090    3.4050    7.7280 N.am   79  CYS79      -0.1954
     92  CA        18.1600    4.1090    8.4490 C.3    79  CYS79       0.1843
     93  C         19.4700    3.4560    8.0290 C.2    79  CYS79       0.2626
     94  O         19.8360    2.4010    8.5340 O.2    79  CYS79      -0.2714
     95  CB        17.9310    3.9630    9.9590 C.3    79  CYS79       0.0997
     96  SG        16.2520    4.4210   10.4830 S.3    79  CYS79      -0.0797
     97  N         20.1650    4.0940    7.0900 N.am   80  SER80      -0.1936
     98  CA        21.4210    3.5670    6.5540 C.3    80  SER80       0.2055
     99  C         22.5550    3.3750    7.5540 C.2    80  SER80       0.2644
    100  O         23.4870    2.6270    7.2890 O.2    80  SER80      -0.2714
    101  CB        21.9090    4.4470    5.3990 C.3    80  SER80       0.2130
    102  OG        22.0640    5.7940    5.8060 O.3    80  SER80      -0.2179
    103  N         22.4770    4.0490    8.6970 N.am   81  GLY81      -0.1939
    104  CA        23.5120    3.9210    9.7100 C.3    81  GLY81       0.2014
    105  C         23.4650    2.6200   10.5000 C.2    81  GLY81       0.2639
    106  O         24.3910    2.3030   11.2240 O.2    81  GLY81      -0.2714
    107  N         22.3840    1.8640   10.3590 N.am   82  GLY82      -0.1939
    108  CA        22.2770    0.6040   11.0700 C.3    82  GLY82       0.2014
    109  C         21.9300    0.7690   12.5370 C.2    82  GLY82       0.2638
    110  O         21.3800    1.7620   12.9310 O.2    82  GLY82      -0.2714
    111  N         22.2810   -0.2270   13.3360 N.am   83  GLU83      -0.1977
    112  CA        21.9870   -0.2240   14.7620 C.3    83  GLU83       0.1602
    113  C         23.0300    0.4610   15.6300 C.2    83  GLU83       0.2287
    114  O         24.2190    0.3560   15.3850 O.2    83  GLU83      -0.2864
    115  CB        21.8270   -1.6630   15.2560 C.3    83  GLU83       0.0415
    116  CG        20.7560   -2.4610   14.5570 C.3    83  GLU83       0.1163
    117  CD        20.6870   -3.8820   15.0740 C.2    83  GLU83       0.3649
    118  OE1       19.8600   -4.6630   14.5610 O.co2  83  GLU83      -0.2457
    119  OE2       21.4620   -4.2180   15.9970 O.co2  83  GLU83      -0.2457
    120  N         26.0130   -1.5870   16.9160 N.3    86  ASP86      -0.1239
    121  CA        27.2780   -1.7080   16.1950 C.3    86  ASP86       0.1674
    122  C         28.2200   -0.5150   16.3420 C.2    86  ASP86       0.2266
    123  O         29.3490   -0.5630   15.8930 O.2    86  ASP86      -0.2867
    124  CB        26.9970   -1.9760   14.7160 C.3    86  ASP86       0.1410
    125  CG        26.3590   -3.3320   14.4890 C.2    86  ASP86       0.3668
    126  OD1       25.6580   -3.5050   13.4750 O.co2  86  ASP86      -0.2456
    127  OD2       26.5680   -4.2320   15.3230 O.co2  86  ASP86      -0.2456
    128  N         17.6120   -1.8420   18.9660 N.3   127  ASN127     -0.1240
    129  CA        16.3920   -1.1850   18.4990 C.3   127  ASN127      0.1653
    130  C         16.5120    0.3160   18.2740 C.2   127  ASN127      0.2266
    131  O         15.5120    0.9890   18.0440 O.2   127  ASN127     -0.2867
    132  CB        15.2440   -1.4360   19.4770 C.3   127  ASN127      0.1155
    133  CG        14.7820   -2.8690   19.4620 C.2   127  ASN127      0.2627
    134  OD1       14.8140   -3.5290   18.4170 O.2   127  ASN127     -0.2716
    135  ND2       14.3300   -3.3600   20.6090 N.am  127  ASN127     -0.0877
    136  N         18.1110    2.8090   15.7920 N.3   129  LEU129     -0.1245
    137  CA        18.7530    2.8830   14.4850 C.3   129  LEU129      0.1561
    138  C         19.3080    4.2700   14.2210 C.2   129  LEU129      0.2260
    139  O         18.9110    5.2350   14.8580 O.2   129  LEU129     -0.2867
    140  CB        17.7510    2.4950   13.3960 C.3   129  LEU129      0.0270
    141  CG        16.9940    1.2010   13.7130 C.3   129  LEU129      0.0019
    142  CD1       15.9780    0.9150   12.6210 C.3   129  LEU129      0.0001
    143  CD2       17.9880    0.0490   13.8580 C.3   129  LEU129      0.0001
    144  N         13.0730    2.1620   17.1000 N.3   139  SER139     -0.1202
    145  CA        12.3370    1.2360   16.2470 C.3   139  SER139      0.2020
    146  C         11.8290    0.0030   16.9830 C.2   139  SER139      0.2618
    147  O         12.1880   -0.2430   18.1300 O.2   139  SER139     -0.2717
    148  CB        13.2150    0.7700   15.0880 C.3   139  SER139      0.2103
    149  OG        14.1710   -0.1680   15.5430 O.3   139  SER139     -0.2182
    150  N         11.0000   -0.7630   16.2780 N.am  140  ASP140     -0.1973
    151  CA        10.3930   -2.0010   16.7600 C.3   140  ASP140      0.1709
    152  C          9.3980   -1.7920   17.8810 C.2   140  ASP140      0.2293
    153  O          9.7420   -1.8730   19.0510 O.2   140  ASP140     -0.2864
    154  CB        11.4580   -3.0090   17.2050 C.3   140  ASP140      0.1436
    155  CG        10.8750   -4.3960   17.4540 C.2   140  ASP140      0.3671
    156  OD1       11.6480   -5.3560   17.6530 O.co2 140  ASP140     -0.2456
    157  OD2        9.6360   -4.5210   17.4480 O.co2 140  ASP140     -0.2456
@<TRIPOS>BOND
     1     1     2    1
     2     2     5    1
     3     2     3    1
     4     5     6    1
     5     6     7    1
     6     9     7   am
     7     3     4    2
     8     3    10   am
     9     7     8    2
    10    10    11    1
    11    88    86   ar
    12    88    89   ar
    13    15    14    1
    14    86    84   ar
    15    90    89    1
    16    89    87   ar
    17    11    14    1
    18    11    12    1
    19    84    83    1
    20    84    85   ar
    21    14    16    1
    22    32    33    1
    23    83    80    1
    24    87    85   ar
    25    33    34    1
    26    33    36    1
    27    12    13    2
    28    12    17   am
    29    34    35    2
    30    24    22    1
    31   101   102    1
    32   101    98    1
    33    22    23    1
    34    22    21    1
    35    17    18    1
    36    65    64    2
    37    80    79    1
    38    80    81    1
    39    27    28    2
    40    27    26    1
    41    79    72   am
    42    82    81    2
    43    98    97    1
    44    98    99    1
    45    62    63    1
    46    37    38    1
    47    18    21    1
    48    18    19    1
    49    81    91   am
    50    40    39    2
    51    64    63    1
    52    64    70   am
    53    97    93   am
    54    39    38    1
    55   100    99    2
    56    72    71    1
    57    72    73    2
    58    26    25    1
    59    26    29    1
    60    71    70    1
    61    71    74    1
    62    99   103   am
    63    63    66    1
    64    38    41    1
    65    91    92    1
    66    93    92    1
    67    93    94    2
    68    30    29    1
    69    19    20    2
    70    75    74    1
    71    75    76    1
    72    92    95    1
    73    29    31    1
    74   103   104    1
    75    66    67    1
    76    41    42    1
    77    77    76   ar
    78    76    78   ar
    79    67    68    1
    80    67    69    1
    81   104   105    1
    82    95    96    1
    83    42    43    1
    84   107   105   am
    85   107   108    1
    86   105   106    2
    87   108   109    1
    88    43    44    1
    89    60    59    1
    90    57    58    2
    91    57    56    1
    92   109   110    2
    93   109   111   am
    94    44    45    1
    95   142   141    1
    96    56    59    1
    97    56    55    1
    98    59    61    1
    99   111   112    1
   100   140   141    1
   101   140   137    1
   102   126   125   ar
   103   141   143    1
   104    54    52   ar
   105   138   137    1
   106   138   139    2
   107   137   136    1
   108   125   124    1
   109   125   127   ar
   110   116   117    1
   111   116   115    1
   112   118   117   ar
   113   124   121    1
   114   112   115    1
   115   112   113    1
   116    52    53   ar
   117    52    51    1
   118   117   119   ar
   119   148   149    1
   120   148   145    1
   121    48    49    2
   122    48    47    1
   123   114   113    2
   124    51    50    1
   125    50    47    1
   126   123   122    2
   127   121   122    1
   128   121   120    1
   129    47    46    1
   130   145   146    1
   131   145   144    1
   132   150   151    1
   133   150   146   am
   134   151   154    1
   135   151   152    1
   136   146   147    2
   137   154   155    1
   138   157   155   ar
   139   155   156   ar
   140   152   153    2
   141   131   130    2
   142   130   129    1
   143   134   133    2
   144   129   128    1
   145   129   132    1
   146   133   132    1
   147   133   135   am
