@<TRIPOS>MOLECULE
tmp/2hy8A00.pdb
 190 176 0 0 0
SMALL
GASTEIGER

@<TRIPOS>ATOM
      1  N         15.9980   63.2410   19.6890 N.3    28  ILE28      -0.1231
      2  CA        16.7310   64.4980   19.7930 C.3    28  ILE28       0.1692
      3  C         15.8820   65.6390   20.3430 C.2    28  ILE28       0.2593
      4  O         16.3750   66.7540   20.5230 O.2    28  ILE28      -0.2718
      5  CB        17.3070   64.9390   18.4290 C.3    28  ILE28       0.0266
      6  CG1       16.1690   65.1640   17.4280 C.3    28  ILE28       0.0019
      7  CG2       18.2850   63.8940   17.9150 C.3    28  ILE28       0.0020
      8  CD1       16.6410   65.6040   16.0580 C.3    28  ILE28       0.0001
      9  N         14.6080   65.3670   20.6140 N.am   29  GLY29      -0.1942
     10  CA        13.7400   66.4060   21.1410 C.3    29  GLY29       0.2014
     11  C         12.2800   66.0070   21.2640 C.2    29  GLY29       0.2639
     12  O         11.8900   64.9030   20.8810 O.2    29  GLY29      -0.2714
     13  N         11.4690   66.9130   21.8010 N.am   30  GLN30      -0.1963
     14  CA        10.0470   66.6520   21.9820 C.3    30  GLN30       0.1733
     15  C          9.2570   67.9450   22.1070 C.2    30  GLN30       0.2616
     16  O          9.7600   68.9460   22.6160 O.2    30  GLN30      -0.2715
     17  CB         9.8290   65.7900   23.2200 C.3    30  GLN30       0.0408
     18  CG         9.9950   66.4020   24.5030 C.3    30  GLN30       0.0908
     19  CD         9.7970   65.3260   25.6050 C.2    30  GLN30       0.2608
     20  OE1       10.4680   64.3480   25.6090 O.2    30  GLN30      -0.2717
     21  NE2        8.9980   65.6320   26.6090 N.am   30  GLN30      -0.0878
     22  N          8.0110   67.9140   21.6400 N.am   31  GLY31      -0.1955
     23  CA         7.1550   69.0850   21.7090 C.3    31  GLY31       0.1869
     24  C          5.6990   68.6710   21.7670 C.2    31  GLY31       0.2309
     25  O          5.3930   67.4840   21.8740 O.2    31  GLY31      -0.2863
     26  N          3.7820   68.5630   19.4840 N.3    33  SER33      -0.1202
     27  CA         3.4420   67.9200   18.2230 C.3    33  SER33       0.2020
     28  C          4.0570   66.5310   18.1040 C.2    33  SER33       0.2619
     29  O          3.9270   65.8760   17.0710 O.2    33  SER33      -0.2717
     30  CB         3.8920   68.7940   17.0500 C.3    33  SER33       0.2103
     31  OG         5.2760   69.0950   17.1380 O.3    33  SER33      -0.2182
     32  N          4.7290   66.0840   19.1610 N.am   34  GLY34      -0.1956
     33  CA         5.3310   64.7630   19.1400 C.3    34  GLY34       0.1869
     34  C          6.8040   64.7100   19.4910 C.2    34  GLY34       0.2309
     35  O          7.4010   65.7080   19.8890 O.2    34  GLY34      -0.2863
     36  N         10.7400   63.9960   18.3370 N.3    36  VAL36      -0.1245
     37  CA        11.5800   64.0910   17.1440 C.3    36  VAL36       0.1561
     38  C         12.8210   63.2030   17.2620 C.2    36  VAL36       0.2260
     39  O         13.5200   63.2320   18.2770 O.2    36  VAL36      -0.2867
     40  CB        12.0270   65.5500   16.8970 C.3    36  VAL36       0.0252
     41  CG1       12.9390   65.6210   15.6770 C.3    36  VAL36       0.0019
     42  CG2       10.8020   66.4400   16.7020 C.3    36  VAL36       0.0019
     43  N         15.3660   63.9990   10.0630 N.3    49  ALA49      -0.1245
     44  CA        14.7080   64.2970   11.3300 C.3    49  ALA49       0.1562
     45  C         13.2530   63.8500   11.2260 C.2    49  ALA49       0.2260
     46  O         12.4900   64.3890   10.4210 O.2    49  ALA49      -0.2867
     47  CB        14.7690   65.7890   11.6160 C.3    49  ALA49       0.0290
     48  N          9.5420   63.2530   13.1070 N.3    51  ARG51      -0.1245
     49  CA         8.6700   63.5110   14.2370 C.3    51  ARG51       0.1563
     50  C          7.5370   62.4930   14.2280 C.2    51  ARG51       0.2260
     51  O          6.8140   62.3620   13.2350 O.2    51  ARG51      -0.2867
     52  CB         8.0680   64.9090   14.1630 C.3    51  ARG51       0.0307
     53  CG         7.1670   65.2060   15.3480 C.3    51  ARG51       0.0489
     54  CD         5.9930   66.0900   14.9670 C.3    51  ARG51       0.2205
     55  NE         6.4060   67.4440   14.6320 N.pl3  51  ARG51      -0.0865
     56  CZ         5.5710   68.3930   14.2280 C.cat  51  ARG51       0.5346
     57  NH1        4.2760   68.1330   14.1010 N.pl3  51  ARG51       0.1354
     58  NH2        6.0290   69.6020   13.9580 N.pl3  51  ARG51       0.1354
     59  N          0.1850   72.6600    9.2210 N.3    67  GLU67      -0.1245
     60  CA         1.6350   72.7040    9.3090 C.3    67  GLU67       0.1567
     61  C          2.2660   71.9600    8.1350 C.2    67  GLU67       0.2260
     62  O          3.1980   72.4490    7.4960 O.2    67  GLU67      -0.2867
     63  CB         2.1150   72.0830   10.6230 C.3    67  GLU67       0.0388
     64  CG         3.6280   71.9670   10.7140 C.3    67  GLU67       0.1160
     65  CD         4.1000   71.2270   11.9530 C.2    67  GLU67       0.3649
     66  OE1        5.3230   71.0180   12.0860 O.co2  67  GLU67      -0.2457
     67  OE2        3.2510   70.8550   12.7900 O.co2  67  GLU67      -0.2457
     68  N          4.3320   73.7130    4.8460 N.3    71  MET71      -0.1245
     69  CA         5.7030   73.3240    4.5330 C.3    71  MET71       0.1570
     70  C          5.8140   72.7910    3.1160 C.2    71  MET71       0.2261
     71  O          6.7320   73.1460    2.3810 O.2    71  MET71      -0.2867
     72  CB         6.2090   72.2640    5.5140 C.3    71  MET71       0.0387
     73  CG         6.4120   72.7610    6.9360 C.3    71  MET71       0.0595
     74  SD         7.4550   71.6280    7.8810 S.3    71  MET71      -0.1393
     75  CE         6.2950   70.2800    8.1890 C.3    71  MET71       0.0692
     76  N         13.7970   74.7470    6.9490 N.3    80  VAL80      -0.1245
     77  CA        14.1290   73.3300    7.0410 C.3    80  VAL80       0.1561
     78  C         13.1940   72.5930    6.0840 C.2    80  VAL80       0.2260
     79  O         11.9790   72.7350    6.1580 O.2    80  VAL80      -0.2867
     80  CB        13.9590   72.8240    8.4850 C.3    80  VAL80       0.0252
     81  CG1       14.2000   71.3130    8.5540 C.3    80  VAL80       0.0019
     82  CG2       14.9510   73.5520    9.3930 C.3    80  VAL80       0.0019
     83  N         11.6670   65.2550    7.7080 N.3    96  MET96      -0.1230
     84  CA        12.2790   66.4720    7.1880 C.3    96  MET96       0.1702
     85  C         13.7980   66.3900    7.2930 C.2    96  MET96       0.2592
     86  O         14.3360   65.4740    7.9140 O.2    96  MET96      -0.2718
     87  CB        11.7210   67.7230    7.9110 C.3    96  MET96       0.0401
     88  CG        11.3230   67.5230    9.3870 C.3    96  MET96       0.0596
     89  SD        10.1010   68.6760   10.1080 S.3    96  MET96      -0.1393
     90  CE         9.2660   69.0120    8.7380 C.3    96  MET96       0.0692
     91  N         14.4990   67.3250    6.6620 N.am   97  GLU97      -0.1966
     92  CA        15.9480   67.2850    6.7250 C.3    97  GLU97       0.1733
     93  C         16.4190   67.5250    8.1480 C.2    97  GLU97       0.2616
     94  O         15.7370   68.1590    8.9520 O.2    97  GLU97      -0.2715
     95  CB        16.5820   68.3130    5.7850 C.3    97  GLU97       0.0429
     96  CG        16.1470   69.7400    6.0060 C.3    97  GLU97       0.1163
     97  CD        17.0610   70.7300    5.3130 C.2    97  GLU97       0.3649
     98  OE1       16.6000   71.8410    4.9930 O.co2  97  GLU97      -0.2457
     99  OE2       18.2470   70.3990    5.0940 O.co2  97  GLU97      -0.2457
    100  N         17.6020   67.0080    8.4430 N.am   98  TYR98      -0.1960
    101  CA        18.1990   67.1310    9.7610 C.3    98  TYR98       0.1771
    102  C         19.3840   68.0970    9.7470 C.2    98  TYR98       0.2619
    103  O         20.3160   67.9360    8.9570 O.2    98  TYR98      -0.2715
    104  CB        18.6600   65.7430   10.2250 C.3    98  TYR98       0.0574
    105  CG        19.5490   65.7370   11.4480 C.ar   98  TYR98      -0.0198
    106  CD1       19.0970   66.2380   12.6650 C.ar   98  TYR98      -0.0009
    107  CD2       20.8390   65.2040   11.3910 C.ar   98  TYR98      -0.0009
    108  CE1       19.9020   66.2070   13.7990 C.ar   98  TYR98       0.0417
    109  CE2       21.6550   65.1680   12.5260 C.ar   98  TYR98       0.0417
    110  CZ        21.1760   65.6700   13.7210 C.ar   98  TYR98       0.1957
    111  OH        21.9570   65.6350   14.8510 O.3    98  TYR98      -0.2866
    112  N         19.3360   69.1080   10.6080 N.am   99  LEU99      -0.1963
    113  CA        20.4350   70.0600   10.7120 C.3    99  LEU99       0.1728
    114  C         21.2060   69.6210   11.9500 C.2    99  LEU99       0.2616
    115  O         20.7360   69.7790   13.0720 O.2    99  LEU99      -0.2715
    116  CB        19.9090   71.4900   10.8660 C.3    99  LEU99       0.0311
    117  CG        19.4090   72.1500    9.5760 C.3    99  LEU99       0.0022
    118  CD1       18.8470   73.5210    9.8750 C.3    99  LEU99       0.0001
    119  CD2       20.5590   72.2580    8.5790 C.3    99  LEU99       0.0001
    120  N         22.3850   69.0510   11.7260 N.am  100  ALA100     -0.1977
    121  CA        23.2220   68.5320   12.8050 C.3   100  ALA100      0.1597
    122  C         23.8780   69.5860   13.6830 C.2   100  ALA100      0.2287
    123  O         24.3840   69.2690   14.7610 O.2   100  ALA100     -0.2864
    124  CB        24.2910   67.6190   12.2220 C.3   100  ALA100      0.0319
    125  N         22.5500   71.8660   15.4810 N.3   102  GLY102     -0.1210
    126  CA        21.8300   72.2610   16.6820 C.3   102  GLY102      0.1956
    127  C         21.0620   73.5580   16.4870 C.2   102  GLY102      0.2612
    128  O         20.8810   74.0100   15.3530 O.2   102  GLY102     -0.2717
    129  N         20.6130   74.1640   17.5820 N.am  103  SER103     -0.1952
    130  CA        19.8520   75.4100   17.5090 C.3   103  SER103      0.1924
    131  C         20.6870   76.6530   17.7910 C.2   103  SER103      0.2314
    132  O         21.8010   76.5710   18.3070 O.2   103  SER103     -0.2863
    133  CB        18.6990   75.3840   18.5080 C.3   103  SER103      0.2116
    134  OG        19.2000   75.4140   19.8340 O.3   103  SER103     -0.2180
    135  N         21.5160   77.1940   21.5020 N.3   106  ASP106     -0.1239
    136  CA        22.7410   76.6050   22.0260 C.3   106  ASP106      0.1674
    137  C         23.9270   77.5290   21.7780 C.2   106  ASP106      0.2266
    138  O         24.7920   77.6960   22.6380 O.2   106  ASP106     -0.2867
    139  CB        23.0220   75.2440   21.3830 C.3   106  ASP106      0.1410
    140  CG        21.9360   74.2240   21.6650 C.2   106  ASP106      0.3668
    141  OD1       21.3520   74.2600   22.7660 O.co2 106  ASP106     -0.2456
    142  OD2       21.6720   73.3800   20.7820 O.co2 106  ASP106     -0.2456
    143  N         15.1030   78.9560   19.4580 N.3   145  ASP145     -0.1225
    144  CA        14.8610   77.5150   19.5090 C.3   145  ASP145      0.1805
    145  C         14.4120   77.0140   18.1270 C.2   145  ASP145      0.2597
    146  O         14.6660   75.8690   17.7600 O.2   145  ASP145     -0.2718
    147  CB        13.7570   77.1620   20.5210 C.3   145  ASP145      0.1424
    148  CG        14.2660   77.0440   21.9520 C.2   145  ASP145      0.3668
    149  OD1       15.4750   76.8160   22.1640 O.co2 145  ASP145     -0.2456
    150  OD2       13.4360   77.1600   22.8790 O.co2 145  ASP145     -0.2456
    151  N         13.7410   77.8710   17.3640 N.am  146  ASN146     -0.1974
    152  CA        13.2460   77.4660   16.0550 C.3   146  ASN146      0.1688
    153  C         14.1510   77.7730   14.8780 C.2   146  ASN146      0.2292
    154  O         13.7590   77.6000   13.7220 O.2   146  ASN146     -0.2864
    155  CB        11.8470   78.0370   15.8370 C.3   146  ASN146      0.1181
    156  CG        10.8290   77.3940   16.7610 C.2   146  ASN146      0.2629
    157  OD1       10.9710   76.2280   17.1160 O.2   146  ASN146     -0.2716
    158  ND2        9.8060   78.1400   17.1490 N.am  146  ASN146     -0.0877
    159  N         17.5150   76.5300   13.2780 N.3   148  LEU148     -0.1245
    160  CA        18.4860   75.4460   13.3370 C.3   148  LEU148      0.1561
    161  C         19.6820   75.7560   12.4490 C.2   148  LEU148      0.2260
    162  O         19.5810   76.5350   11.4990 O.2   148  LEU148     -0.2867
    163  CB        17.8310   74.1290   12.9280 C.3   148  LEU148      0.0270
    164  CG        16.6090   73.7810   13.7730 C.3   148  LEU148      0.0019
    165  CD1       15.9770   72.5170   13.2450 C.3   148  LEU148      0.0001
    166  CD2       17.0140   73.6150   15.2370 C.3   148  LEU148      0.0001
    167  N         12.2680   76.5030   11.3490 N.3   158  THR158     -0.1203
    168  CA        11.3750   75.3490   11.4100 C.3   158  THR158      0.1994
    169  C         10.2150   75.5390   12.3920 C.2   158  THR158      0.2617
    170  O         10.0480   76.6100   12.9890 O.2   158  THR158     -0.2717
    171  CB        12.1380   74.0530   11.7840 C.3   158  THR158      0.1784
    172  OG1       11.3520   72.9150   11.4020 O.3   158  THR158     -0.2211
    173  CG2       12.4060   73.9890   13.2870 C.3   158  THR158      0.0376
    174  N          9.4320   74.4730   12.5490 N.am  159  ASP159     -0.1973
    175  CA         8.2450   74.4260   13.4060 C.3   159  ASP159      0.1709
    176  C          7.1410   75.3970   13.0000 C.2   159  ASP159      0.2293
    177  O          7.0010   76.4810   13.5670 O.2   159  ASP159     -0.2864
    178  CB         8.5790   74.6610   14.8780 C.3   159  ASP159      0.1436
    179  CG         7.4290   74.2400   15.8000 C.2   159  ASP159      0.3671
    180  OD1        6.3170   73.9880   15.2800 O.co2 159  ASP159     -0.2456
    181  OD2        7.6260   74.1580   17.0290 O.co2 159  ASP159     -0.2456
    182  N         27.9730   72.7580   20.5240 N.3   290  LYS290     -0.1245
    183  CA        27.5880   71.3580   20.4890 C.3   290  LYS290      0.1561
    184  C         28.3340   70.5560   21.5550 C.2   290  LYS290      0.2260
    185  O         27.7240   69.7950   22.3100 O.2   290  LYS290     -0.2867
    186  CB        27.8600   70.7790   19.1000 C.3   290  LYS290      0.0271
    187  CG        26.9640   69.6110   18.7440 C.3   290  LYS290      0.0035
    188  CD        27.1100   69.2230   17.2840 C.3   290  LYS290      0.0206
    189  CE        26.1240   68.1300   16.9080 C.3   290  LYS290      0.1093
    190  NZ        26.2730   67.7170   15.4820 N.3   290  LYS290     -0.1314
@<TRIPOS>BOND
     1    71    70    2
     2    70    69    1
     3    69    68    1
     4    69    72    1
     5    98    97   ar
     6    99    97   ar
     7    97    96    1
     8    72    73    1
     9    95    96    1
    10    95    92    1
    11    78    79    2
    12    78    77    1
    13    91    92    1
    14    91    85   am
    15    92    93    1
    16    73    74    1
    17    76    77    1
    18    77    80    1
    19    84    85    1
    20    84    83    1
    21    84    87    1
    22    85    86    2
    23    62    61    2
    24    74    75    1
    25    87    88    1
    26    61    60    1
    27    93   100   am
    28    93    94    2
    29   100   101    1
    30    80    81    1
    31    80    82    1
    32   119   117    1
    33    90    89    1
    34   103   102    2
    35    59    60    1
    36    60    63    1
    37    88    89    1
    38   117   118    1
    39   117   116    1
    40   102   101    1
    41   102   112   am
    42   101   104    1
    43    43    44    1
    44   104   105    1
    45    46    45    2
    46   112   113    1
    47    63    64    1
    48   113   116    1
    49   113   114    1
    50    64    65    1
    51    45    44    1
    52    44    47    1
    53   167   168    1
    54   107   105   ar
    55   107   109   ar
    56   172   171    1
    57   168   171    1
    58   168   169    1
    59   105   106   ar
    60   162   161    2
    61   120   114   am
    62   120   121    1
    63   171   173    1
    64   114   115    2
    65    65    66   ar
    66    65    67   ar
    67   124   121    1
    68   169   174   am
    69   169   170    2
    70   161   160    1
    71   109   110   ar
    72   174   175    1
    73   106   108   ar
    74   121   122    1
    75   163   160    1
    76   163   164    1
    77   176   175    1
    78   176   177    2
    79    48    49    1
    80    51    50    2
    81   165   164    1
    82   159   160    1
    83   175   178    1
    84   122   123    2
    85   110   108   ar
    86   110   111    1
    87   154   153    2
    88   164   166    1
    89    58    56    1
    90    57    56    1
    91    52    49    1
    92    52    53    1
    93    56    55    2
    94    50    49    1
    95    55    54    1
    96   153   152    1
    97   178   179    1
    98    54    53    1
    99   180   179   ar
   100   128   127    2
   101   125   126    1
   102   190   189    1
   103    41    40    1
   104   179   181   ar
   105   155   152    1
   106   155   156    1
   107   152   151    1
   108     8     6    1
   109   127   126    1
   110   127   129   am
   111    42    40    1
   112   156   157    2
   113   156   158   am
   114    40    37    1
   115   189   188    1
   116    30    31    1
   117    30    27    1
   118    29    28    2
   119    37    38    1
   120    37    36    1
   121    38    39    2
   122   188   187    1
   123   151   145   am
   124     6     5    1
   125   130   129    1
   126   130   131    1
   127   130   133    1
   128   146   145    2
   129   131   132    2
   130     7     5    1
   131    28    27    1
   132    28    32   am
   133   145   144    1
   134    27    26    1
   135     5     2    1
   136   133   134    1
   137   187   186    1
   138   186   183    1
   139    33    32    1
   140    33    34    1
   141   143   144    1
   142    34    35    2
   143   144   147    1
   144     1     2    1
   145     2     3    1
   146     3     4    2
   147     3     9   am
   148   183   182    1
   149   183   184    1
   150   147   148    1
   151     9    10    1
   152   142   140   ar
   153    12    11    2
   154    10    11    1
   155    11    13   am
   156   139   140    1
   157   139   136    1
   158   135   136    1
   159   184   185    2
   160    22    23    1
   161    22    15   am
   162   140   141   ar
   163    23    24    1
   164    24    25    2
   165   137   136    1
   166   137   138    2
   167    13    14    1
   168   148   149   ar
   169   148   150   ar
   170    14    15    1
   171    14    17    1
   172    15    16    2
   173    17    18    1
   174    18    19    1
   175    19    20    2
   176    19    21   am
