@<TRIPOS>MOLECULE
tmp/2hydB01.pdb
 136 130 0 0 0
SMALL
GASTEIGER

@<TRIPOS>ATOM
      1  N        112.3210   79.6840  161.3410 N.3   113  ALA113     -0.1231
      2  CA       110.8990   79.9820  161.4640 C.3   113  ALA113      0.1694
      3  C        110.3980   80.6070  160.1750 C.2   113  ALA113      0.2592
      4  O        109.2350   80.4410  159.8070 O.2   113  ALA113     -0.2718
      5  CB       110.6600   80.9290  162.6080 C.3   113  ALA113      0.0304
      6  N        111.2970   81.3030  159.4860 N.am  114  ASN114     -0.1974
      7  CA       110.9710   82.0030  158.2500 C.3   114  ASN114      0.1688
      8  C        111.6450   81.4310  157.0100 C.2   114  ASN114      0.2292
      9  O        111.8410   82.1360  156.0190 O.2   114  ASN114     -0.2864
     10  CB       111.3560   83.4720  158.3930 C.3   114  ASN114      0.1181
     11  CG       110.9610   84.0320  159.7240 C.2   114  ASN114      0.2629
     12  OD1      109.7830   84.1700  160.0220 O.2   114  ASN114     -0.2716
     13  ND2      111.9450   84.3430  160.5480 N.am  114  ASN114     -0.0877
     14  N        109.2630   89.6340  168.4720 N.3   349  TYR349     -0.1227
     15  CA       109.8930   88.7800  167.4670 C.3   349  TYR349      0.1736
     16  C        110.3300   89.5980  166.2560 C.2   349  TYR349      0.2595
     17  O        111.1990   89.1730  165.4970 O.2   349  TYR349     -0.2718
     18  CB       108.9770   87.6540  167.0060 C.3   349  TYR349      0.0548
     19  CG       108.7760   86.5790  168.0320 C.ar  349  TYR349     -0.0200
     20  CD1      107.8160   86.7220  169.0080 C.ar  349  TYR349     -0.0009
     21  CD2      109.5340   85.4030  168.0170 C.ar  349  TYR349     -0.0009
     22  CE1      107.5960   85.7300  169.9480 C.ar  349  TYR349      0.0417
     23  CE2      109.3200   84.3990  168.9590 C.ar  349  TYR349      0.0417
     24  CZ       108.3430   84.5780  169.9220 C.ar  349  TYR349      0.1957
     25  OH       108.0790   83.6260  170.8710 O.3   349  TYR349     -0.2866
     26  N        109.7230   90.7660  166.0750 N.am  350  ASN350     -0.1974
     27  CA       110.0720   91.6540  164.9710 C.3   350  ASN350      0.1688
     28  C        109.8610   93.1020  165.3380 C.2   350  ASN350      0.2292
     29  O        109.0160   93.4180  166.1740 O.2   350  ASN350     -0.2864
     30  CB       109.2440   91.3460  163.7380 C.3   350  ASN350      0.1181
     31  CG       109.5580   89.9940  163.1700 C.2   350  ASN350      0.2629
     32  OD1      110.7300   89.6610  162.9170 O.2   350  ASN350     -0.2716
     33  ND2      108.5160   89.1880  162.9600 N.am  350  ASN350     -0.0877
     34  N        106.1260   94.1910  164.4070 N.3   353  GLU353     -0.1245
     35  CA       105.0790   93.7150  165.3110 C.3   353  GLU353      0.1567
     36  C        105.0990   94.2790  166.7270 C.2   353  GLU353      0.2260
     37  O        106.0250   94.9850  167.1170 O.2   353  GLU353     -0.2867
     38  CB       105.1120   92.1910  165.3990 C.3   353  GLU353      0.0388
     39  CG       104.4840   91.4980  164.2330 C.3   353  GLU353      0.1160
     40  CD       105.5010   90.8350  163.3570 C.2   353  GLU353      0.3649
     41  OE1      106.3600   90.1180  163.9120 O.co2 353  GLU353     -0.2457
     42  OE2      105.4340   91.0190  162.1190 O.co2 353  GLU353     -0.2457
     43  N        105.6940   90.9280  172.7610 N.3   356  ILE356     -0.1245
     44  CA       104.9540   89.7940  173.2610 C.3   356  ILE356      0.1561
     45  C        105.1120   89.6870  174.7420 C.2   356  ILE356      0.2260
     46  O        104.2250   89.2460  175.4550 O.2   356  ILE356     -0.2867
     47  CB       105.4620   88.5640  172.6350 C.3   356  ILE356      0.0252
     48  CG1      105.4030   88.7810  171.1400 C.3   356  ILE356      0.0019
     49  CG2      104.6600   87.3700  173.1070 C.3   356  ILE356      0.0019
     50  CD1      104.9490   87.5960  170.3960 C.3   356  ILE356      0.0001
     51  N         96.0140   80.8180  176.7130 N.3   376  SER376     -0.1202
     52  CA        96.9280   80.4310  175.6590 C.3   376  SER376      0.2020
     53  C         97.2400   81.6380  174.7860 C.2   376  SER376      0.2619
     54  O         96.3620   82.4390  174.4830 O.2   376  SER376     -0.2717
     55  CB        96.3090   79.3460  174.7870 C.3   376  SER376      0.2103
     56  OG        96.8500   79.3870  173.4790 O.3   376  SER376     -0.2182
     57  N         98.4960   81.7550  174.3740 N.am  377  GLY377     -0.1942
     58  CA        98.9070   82.8690  173.5370 C.3   377  GLY377      0.2014
     59  C         99.3820   84.0230  174.3910 C.2   377  GLY377      0.2639
     60  O         99.5970   85.1300  173.9090 O.2   377  GLY377     -0.2714
     61  N         99.5610   83.7530  175.6750 N.am  378  GLY378     -0.1939
     62  CA        99.9880   84.7930  176.5790 C.3   378  GLY378      0.2014
     63  C        101.4560   85.1420  176.5350 C.2   378  GLY378      0.2639
     64  O        101.8010   86.3150  176.5820 O.2   378  GLY378     -0.2714
     65  N        102.3310   84.1470  176.4680 N.am  379  GLY379     -0.1939
     66  CA       103.7420   84.4680  176.4390 C.3   379  GLY379      0.2014
     67  C        104.6540   83.5140  177.1770 C.2   379  GLY379      0.2639
     68  O        105.8710   83.5870  177.0190 O.2   379  GLY379     -0.2714
     69  N        104.0810   82.6300  177.9860 N.am  380  LYS380     -0.1963
     70  CA       104.8610   81.6450  178.7280 C.3   380  LYS380      0.1728
     71  C        105.9440   80.9540  177.8860 C.2   380  LYS380      0.2617
     72  O        107.1280   81.0320  178.2130 O.2   380  LYS380     -0.2715
     73  CB       103.9220   80.6080  179.3130 C.3   380  LYS380      0.0311
     74  CG       102.9430   81.2130  180.2720 C.3   380  LYS380      0.0038
     75  CD       101.6740   80.4090  180.3450 C.3   380  LYS380      0.0206
     76  CE       100.6820   80.9130  179.3160 C.3   380  LYS380      0.1093
     77  NZ        99.5640   79.9600  179.1010 N.3   380  LYS380     -0.1314
     78  N        105.5670   80.2880  176.7990 N.am  381  SER381     -0.1936
     79  CA       106.5800   79.6330  175.9880 C.3   381  SER381      0.2055
     80  C        107.6530   80.6020  175.5550 C.2   381  SER381      0.2643
     81  O        108.8330   80.3390  175.7350 O.2   381  SER381     -0.2714
     82  CB       105.9720   78.9800  174.7600 C.3   381  SER381      0.2130
     83  OG       105.2140   77.8500  175.1320 O.3   381  SER381     -0.2179
     84  N        107.2460   81.7270  174.9870 N.am  382  THR382     -0.1950
     85  CA       108.1970   82.7370  174.5320 C.3   382  THR382      0.1897
     86  C        109.1540   83.1330  175.6480 C.2   382  THR382      0.2313
     87  O        110.3730   83.1480  175.4610 O.2   382  THR382     -0.2863
     88  CB       107.4620   83.9880  174.0590 C.3   382  THR382      0.1794
     89  OG1      106.4940   83.6230  173.0770 O.3   382  THR382     -0.2208
     90  CG2      108.4230   84.9640  173.4540 C.3   382  THR382      0.0378
     91  N        116.3260   83.1880  171.5050 N.3   391  TYR391     -0.1241
     92  CA       116.1110   84.5080  170.9420 C.3   391  TYR391      0.1605
     93  C        116.6970   85.4080  172.0110 C.2   391  TYR391      0.2264
     94  O        116.7220   85.0400  173.1860 O.2   391  TYR391     -0.2867
     95  CB       114.6280   84.8330  170.8030 C.3   391  TYR391      0.0534
     96  CG       113.9180   84.2180  169.6260 C.ar  391  TYR391     -0.0201
     97  CD1      113.2610   82.9940  169.7400 C.ar  391  TYR391     -0.0009
     98  CD2      113.8510   84.8910  168.4140 C.ar  391  TYR391     -0.0009
     99  CE1      112.5450   82.4610  168.6770 C.ar  391  TYR391      0.0417
    100  CE2      113.1430   84.3710  167.3450 C.ar  391  TYR391      0.0417
    101  CZ       112.4880   83.1590  167.4820 C.ar  391  TYR391      0.1957
    102  OH       111.7510   82.6670  166.4280 O.3   391  TYR391     -0.2866
    103  N        107.6900   72.8050  179.5170 N.3   502  ASP502     -0.1225
    104  CA       106.5620   73.4470  178.8540 C.3   502  ASP502      0.1805
    105  C        105.4440   72.4590  178.5270 C.2   502  ASP502      0.2597
    106  O        105.4370   71.8670  177.4530 O.2   502  ASP502     -0.2718
    107  CB       107.0380   74.0940  177.5570 C.3   502  ASP502      0.1424
    108  CG       106.1730   75.2540  177.1320 C.2   502  ASP502      0.3668
    109  OD1      104.9960   75.3160  177.5400 O.co2 502  ASP502     -0.2456
    110  OD2      106.6740   76.1050  176.3760 O.co2 502  ASP502     -0.2456
    111  N        104.4930   72.2840  179.4330 N.am  503  GLU503     -0.1979
    112  CA       103.4070   71.3500  179.1770 C.3   503  GLU503      0.1602
    113  C        103.9580   69.9480  178.9390 C.2   503  GLU503      0.2287
    114  O        103.5350   69.2770  178.0080 O.2   503  GLU503     -0.2864
    115  CB       102.6350   71.7520  177.9200 C.3   503  GLU503      0.0415
    116  CG       101.9980   73.1250  177.9050 C.3   503  GLU503      0.1163
    117  CD       100.9200   73.2190  176.8360 C.2   503  GLU503      0.3649
    118  OE1       99.9190   72.4790  176.9610 O.co2 503  GLU503     -0.2457
    119  OE2      101.0720   74.0120  175.8750 O.co2 503  GLU503     -0.2457
    120  N        105.5500   75.4160  182.6750 N.3   532  VAL532     -0.1245
    121  CA       104.4260   76.0360  181.9780 C.3   532  VAL532      0.1561
    122  C        103.3370   74.9760  181.9870 C.2   532  VAL532      0.2260
    123  O        103.5640   73.8560  181.5320 O.2   532  VAL532     -0.2867
    124  CB       104.7470   76.3200  180.5210 C.3   532  VAL532      0.0252
    125  CG1      103.5590   76.9520  179.8520 C.3   532  VAL532      0.0019
    126  CG2      105.9230   77.2140  180.4340 C.3   532  VAL532      0.0019
    127  N         98.8360   73.9040  181.7900 N.3   534  HIS534     -0.1241
    128  CA        97.4420   74.2570  181.6100 C.3   534  HIS534      0.1621
    129  C         96.6350   73.4090  182.5750 C.2   534  HIS534      0.2264
    130  O         95.5840   73.8330  183.0610 O.2   534  HIS534     -0.2867
    131  CB        96.9950   74.0070  180.1830 C.3   534  HIS534      0.0745
    132  CG        97.4050   75.0800  179.2310 C.ar  534  HIS534      0.0817
    133  ND1       97.2480   76.4200  179.5170 N.ar  534  HIS534     -0.2268
    134  CD2       97.9460   75.0170  177.9910 C.ar  534  HIS534      0.1154
    135  CE1       97.6770   77.1380  178.4920 C.ar  534  HIS534      0.1986
    136  NE2       98.1060   76.3110  177.5530 N.ar  534  HIS534     -0.2212
@<TRIPOS>BOND
     1     9     8    2
     2     8     7    1
     3     7    10    1
     4     7     6    1
     5    10    11    1
     6     6     3   am
     7    11    12    2
     8    11    13   am
     9     4     3    2
    10     3     2    1
    11     1     2    1
    12     2     5    1
    13    42    40   ar
    14    32    31    2
    15    33    31   am
    16    31    30    1
    17    40    41   ar
    18    40    39    1
    19    30    27    1
    20    39    38    1
    21    34    35    1
    22    27    28    1
    23    27    26    1
    24    35    38    1
    25    35    36    1
    26    28    29    2
    27    17    16    2
    28    26    16   am
    29    16    15    1
    30   102   101    1
    31    36    37    2
    32    18    15    1
    33    18    19    1
    34   100   101   ar
    35   100    98   ar
    36    15    14    1
    37   101    99   ar
    38    21    19   ar
    39    21    23   ar
    40    19    20   ar
    41    98    96   ar
    42    99    97   ar
    43    23    24   ar
    44    20    22   ar
    45    96    97   ar
    46    96    95    1
    47    24    22   ar
    48    24    25    1
    49    50    48    1
    50    95    92    1
    51    92    91    1
    52    92    93    1
    53    48    47    1
    54    93    94    2
    55    47    49    1
    56    47    44    1
    57    43    44    1
    58    89    88    1
    59    44    45    1
    60    90    88    1
    61    56    55    1
    62    58    57    1
    63    58    59    1
    64    60    59    2
    65    88    85    1
    66    57    53   am
    67    59    61   am
    68    54    53    2
    69    85    84    1
    70    85    86    1
    71    45    46    2
    72    82    83    1
    73    82    79    1
    74    53    52    1
    75    55    52    1
    76    84    80   am
    77    87    86    2
    78    80    81    2
    79    80    79    1
    80    52    51    1
    81    61    62    1
    82   119   117   ar
    83    79    78    1
    84   110   108   ar
    85    66    65    1
    86    66    67    1
    87    65    63   am
    88    63    62    1
    89    63    64    2
    90    78    71   am
    91   117   118   ar
    92   117   116    1
    93    68    67    2
    94   108   109   ar
    95   108   107    1
    96    67    69   am
    97   106   105    2
    98   136   134   ar
    99   136   135   ar
   100   107   104    1
   101    71    72    2
   102    71    70    1
   103   116   115    1
   104   115   112    1
   105    69    70    1
   106   134   132   ar
   107   114   113    2
   108   135   133   ar
   109   105   104    1
   110   105   111   am
   111    70    73    1
   112   104   103    1
   113   113   112    1
   114    77    76    1
   115   112   111    1
   116   132   133   ar
   117   132   131    1
   118    73    74    1
   119    76    75    1
   120   125   124    1
   121   131   128    1
   122    74    75    1
   123   126   124    1
   124   124   121    1
   125   123   122    2
   126   128   127    1
   127   128   129    1
   128   121   122    1
   129   121   120    1
   130   129   130    2
