@<TRIPOS>MOLECULE
tmp/2hyuA00.pdb
 104 101 0 0 0
SMALL
GASTEIGER

@<TRIPOS>ATOM
      1  N         92.0940    6.9400   56.8070 N.3    61  SER61      -0.1217
      2  CA        92.4640    6.7950   55.4080 C.3    61  SER61       0.1889
      3  C         91.4670    5.9290   54.6540 C.2    61  SER61       0.2288
      4  O         90.5830    5.3140   55.2550 O.2    61  SER61      -0.2866
      5  CB        93.8610    6.1780   55.2900 C.3    61  SER61       0.2089
      6  OG        93.8560    4.8290   55.7190 O.3    61  SER61      -0.2183
      7  N         88.4630    4.3630   52.2900 N.3    63  HIS63      -0.1226
      8  CA        87.0130    4.4880   52.3240 C.3    63  HIS63       0.1752
      9  C         86.4720    4.9230   53.6760 C.2    63  HIS63       0.2595
     10  O         85.4880    5.6580   53.7370 O.2    63  HIS63      -0.2718
     11  CB        86.3810    3.1640   51.9020 C.3    63  HIS63       0.0759
     12  CG        86.6910    2.7860   50.4890 C.ar   63  HIS63       0.0818
     13  ND1       86.8580    1.4790   50.0840 N.ar   63  HIS63      -0.2268
     14  CD2       86.8810    3.5500   49.3870 C.ar   63  HIS63       0.1154
     15  CE1       87.1410    1.4560   48.7940 C.ar   63  HIS63       0.1986
     16  NE2       87.1620    2.6990   48.3480 N.ar   63  HIS63      -0.2212
     17  N         87.1040    4.4740   54.7580 N.am   64  LEU64      -0.1980
     18  CA        86.6440    4.8560   56.0910 C.3    64  LEU64       0.1596
     19  C         86.7350    6.3640   56.2790 C.2    64  LEU64       0.2287
     20  O         85.8090    6.9870   56.7950 O.2    64  LEU64      -0.2864
     21  CB        87.4640    4.1700   57.1830 C.3    64  LEU64       0.0297
     22  CG        87.0150    4.5800   58.5910 C.3    64  LEU64       0.0022
     23  CD1       85.5580    4.1630   58.8090 C.3    64  LEU64       0.0001
     24  CD2       87.9180    3.9420   59.6290 C.3    64  LEU64       0.0001
     25  N         77.5880   -7.1650   41.1640 N.3   249  GLY249     -0.1210
     26  CA        78.7300   -7.5510   40.3560 C.3   249  GLY249      0.1956
     27  C         80.0690   -7.2640   41.0100 C.2   249  GLY249      0.2612
     28  O         80.1420   -6.9320   42.1950 O.2   249  GLY249     -0.2717
     29  N         81.1370   -7.3960   40.2300 N.am  250  LYS250     -0.1965
     30  CA        82.4860   -7.1490   40.7250 C.3   250  LYS250      0.1728
     31  C         82.6370   -5.7300   41.2560 C.2   250  LYS250      0.2617
     32  O         81.9950   -4.8000   40.7660 O.2   250  LYS250     -0.2715
     33  CB        83.5080   -7.3640   39.6050 C.3   250  LYS250      0.0311
     34  CG        83.7140   -8.8140   39.1970 C.3   250  LYS250      0.0038
     35  CD        84.4820   -9.5880   40.2630 C.3   250  LYS250      0.0206
     36  CE        84.9140  -10.9530   39.7380 C.3   250  LYS250      0.1093
     37  NZ        85.7960  -11.6740   40.7030 N.3   250  LYS250     -0.1314
     38  N         83.4880   -5.5770   42.2640 N.am  251  GLY251     -0.1940
     39  CA        83.7530   -4.2690   42.8290 C.3   251  GLY251      0.2014
     40  C         82.6030   -3.5450   43.4930 C.2   251  GLY251      0.2639
     41  O         81.5370   -4.1130   43.7400 O.2   251  GLY251     -0.2714
     42  N         82.8330   -2.2630   43.7550 N.am  252  THR252     -0.1950
     43  CA        81.8590   -1.4130   44.4250 C.3   252  THR252      0.1897
     44  C         82.0060    0.0300   43.9550 C.2   252  THR252      0.2313
     45  O         83.1220    0.5040   43.7600 O.2   252  THR252     -0.2863
     46  CB        82.1030   -1.4350   45.9530 C.3   252  THR252      0.1794
     47  OG1       82.2070   -2.7920   46.4020 O.3   252  THR252     -0.2208
     48  CG2       80.9760   -0.7360   46.6960 C.3   252  THR252      0.0378
     49  N         81.8650    2.9260   45.4480 N.3   254  ASP254     -0.1239
     50  CA        81.8920    3.5470   46.7670 C.3   254  ASP254      0.1674
     51  C         81.3280    4.9620   46.8530 C.2   254  ASP254      0.2266
     52  O         80.6820    5.3170   47.8440 O.2   254  ASP254     -0.2867
     53  CB        83.3240    3.5200   47.3000 C.3   254  ASP254      0.1410
     54  CG        83.8810    2.1140   47.3660 C.2   254  ASP254      0.3668
     55  OD1       83.4930    1.3670   48.2850 O.co2 254  ASP254     -0.2456
     56  OD2       84.6890    1.7480   46.4870 O.co2 254  ASP254     -0.2456
     57  N         79.9910   -6.7360   50.3910 N.3   291  ASP291     -0.1225
     58  CA        80.7530   -5.9190   49.4420 C.3   291  ASP291      0.1805
     59  C         81.9000   -5.0910   50.0280 C.2   291  ASP291      0.2598
     60  O         82.7330   -4.5640   49.2870 O.2   291  ASP291     -0.2718
     61  CB        79.8030   -4.9830   48.6760 C.3   291  ASP291      0.1424
     62  CG        79.7910   -5.2560   47.1760 C.2   291  ASP291      0.3668
     63  OD1       79.4760   -6.3950   46.7760 O.co2 291  ASP291     -0.2456
     64  OD2       80.0960   -4.3330   46.3950 O.co2 291  ASP291     -0.2456
     65  N         81.9500   -4.9700   51.3490 N.am  292  THR292     -0.1939
     66  CA        83.0020   -4.1800   51.9830 C.3   292  THR292      0.2028
     67  C         83.6190   -4.9330   53.1600 C.2   292  THR292      0.2642
     68  O         83.0550   -5.9200   53.6230 O.2   292  THR292     -0.2714
     69  CB        82.4350   -2.8400   52.4790 C.3   292  THR292      0.1808
     70  OG1       81.4230   -3.0950   53.4610 O.3   292  THR292     -0.2208
     71  CG2       81.8120   -2.0570   51.3120 C.3   292  THR292      0.0379
     72  N         84.7650   -4.4570   53.6460 N.am  293  LYS293     -0.1963
     73  CA        85.4540   -5.1030   54.7640 C.3   293  LYS293      0.1728
     74  C         85.9780   -4.1200   55.8230 C.2   293  LYS293      0.2617
     75  O         86.0370   -2.9110   55.6020 O.2   293  LYS293     -0.2715
     76  CB        86.6520   -5.9190   54.2520 C.3   293  LYS293      0.0311
     77  CG        86.3760   -6.8990   53.1110 C.3   293  LYS293      0.0038
     78  CD        87.5900   -7.8170   52.9070 C.3   293  LYS293      0.0206
     79  CE        87.4200   -8.7700   51.7230 C.3   293  LYS293      0.1093
     80  NZ        87.4520   -8.0700   50.3980 N.3   293  LYS293     -0.1314
     81  N         86.3560   -4.6610   56.9790 N.am  294  GLY294     -0.1940
     82  CA        86.9230   -3.8530   58.0490 C.3   294  GLY294      0.2014
     83  C         86.1080   -2.7380   58.6840 C.2   294  GLY294      0.2639
     84  O         84.8810   -2.8170   58.7760 O.2   294  GLY294     -0.2714
     85  N         86.8120   -1.7000   59.1390 N.am  295  ASP295     -0.1957
     86  CA        86.1840   -0.5520   59.7960 C.3   295  ASP295      0.1840
     87  C         85.1880    0.1210   58.8620 C.2   295  ASP295      0.2622
     88  O         84.1470    0.6100   59.2960 O.2   295  ASP295     -0.2715
     89  CB        87.2350    0.4810   60.2230 C.3   295  ASP295      0.1450
     90  CG        88.3690   -0.1250   61.0360 C.2   295  ASP295      0.3671
     91  OD1       88.0960   -0.9420   61.9380 O.co2 295  ASP295     -0.2456
     92  OD2       89.5380    0.2360   60.7740 O.co2 295  ASP295     -0.2456
     93  N         85.5290    0.1480   57.5770 N.am  296  TYR296     -0.1974
     94  CA        84.6790    0.7490   56.5530 C.3   296  TYR296      0.1639
     95  C         83.3330    0.0270   56.5600 C.2   296  TYR296      0.2290
     96  O         82.2740    0.6570   56.5690 O.2   296  TYR296     -0.2864
     97  CB        85.3790    0.6290   55.1900 C.3   296  TYR296      0.0560
     98  CG        84.5660    1.0380   53.9790 C.ar  296  TYR296     -0.0198
     99  CD1       83.8190    2.2170   53.9740 C.ar  296  TYR296     -0.0009
    100  CD2       84.5710    0.2560   52.8200 C.ar  296  TYR296     -0.0009
    101  CE1       83.0980    2.6050   52.8460 C.ar  296  TYR296      0.0417
    102  CE2       83.8540    0.6360   51.6870 C.ar  296  TYR296      0.0417
    103  CZ        83.1200    1.8120   51.7090 C.ar  296  TYR296      0.1957
    104  OH        82.4020    2.1930   50.6010 O.3   296  TYR296     -0.2866
@<TRIPOS>BOND
     1    34    33    1
     2    34    35    1
     3    33    30    1
     4    36    35    1
     5    36    37    1
     6    29    30    1
     7    29    27   am
     8    26    27    1
     9    26    25    1
    10    30    31    1
    11    32    31    2
    12    27    28    2
    13    31    38   am
    14    38    39    1
    15    39    40    1
    16    40    41    2
    17    40    42   am
    18    42    43    1
    19    45    44    2
    20    44    43    1
    21    43    46    1
    22    49    50    1
    23    46    47    1
    24    46    48    1
    25    64    62   ar
    26    56    54   ar
    27    50    51    1
    28    50    53    1
    29    63    62   ar
    30    51    52    2
    31    62    61    1
    32    53    54    1
    33    54    55   ar
    34    16    15   ar
    35    16    14   ar
    36    61    58    1
    37    15    13   ar
    38    60    59    2
    39    14    12   ar
    40    58    59    1
    41    58    57    1
    42    59    65   am
    43    13    12   ar
    44    80    79    1
    45    12    11    1
    46   104   103    1
    47    71    69    1
    48    65    66    1
    49   102   103   ar
    50   102   100   ar
    51   103   101   ar
    52    79    78    1
    53    11     8    1
    54    66    69    1
    55    66    67    1
    56     7     8    1
    57     8     9    1
    58    69    70    1
    59   100    98   ar
    60   101    99   ar
    61    78    77    1
    62    77    76    1
    63    67    68    2
    64    67    72   am
    65    72    73    1
    66     9    10    2
    67     9    17   am
    68    99    98   ar
    69    98    97    1
    70    76    73    1
    71     3     4    2
    72     3     2    1
    73    17    18    1
    74    73    74    1
    75    97    94    1
    76     5     2    1
    77     5     6    1
    78     2     1    1
    79    75    74    2
    80    74    81   am
    81    18    19    1
    82    18    21    1
    83    19    20    2
    84    94    95    1
    85    94    93    1
    86    95    96    2
    87    81    82    1
    88    21    22    1
    89    93    87   am
    90    82    83    1
    91    22    23    1
    92    22    24    1
    93    83    84    2
    94    83    85   am
    95    87    88    2
    96    87    86    1
    97    85    86    1
    98    86    89    1
    99    89    90    1
   100    92    90   ar
   101    90    91   ar
