@<TRIPOS>MOLECULE
tmp/2hyvA00.pdb
 102 100 0 0 0
SMALL
GASTEIGER

@<TRIPOS>ATOM
      1  N         91.5360    5.4620   53.1440 N.3    62  GLY62      -0.1210
      2  CA        90.6410    4.6200   52.3730 C.3    62  GLY62       0.1956
      3  C         89.1850    5.0320   52.3810 C.2    62  GLY62       0.2612
      4  O         88.8480    6.1960   52.6110 O.2    62  GLY62      -0.2717
      5  N         88.3170    4.0620   52.1200 N.am   63  HIS63      -0.1961
      6  CA        86.8870    4.3130   52.0820 C.3    63  HIS63       0.1787
      7  C         86.3330    4.7480   53.4300 C.2    63  HIS63       0.2620
      8  O         85.3780    5.5260   53.4850 O.2    63  HIS63      -0.2715
      9  CB        86.1600    3.0740   51.5590 C.3    63  HIS63       0.0785
     10  CG        86.4860    2.7630   50.1320 C.ar   63  HIS63       0.0821
     11  ND1       86.8800    1.5120   49.7060 N.ar   63  HIS63      -0.2267
     12  CD2       86.5040    3.5580   49.0370 C.ar   63  HIS63       0.1154
     13  CE1       87.1290    1.5530   48.4080 C.ar   63  HIS63       0.1986
     14  NE2       86.9080    2.7820   47.9780 N.ar   63  HIS63      -0.2212
     15  N         86.9300    4.2710   54.5190 N.am   64  LEU64      -0.1977
     16  CA        86.4520    4.6660   55.8410 C.3    64  LEU64       0.1596
     17  C         86.5800    6.1790   56.0020 C.2    64  LEU64       0.2287
     18  O         85.6720    6.8350   56.5180 O.2    64  LEU64      -0.2864
     19  CB        87.2410    3.9660   56.9510 C.3    64  LEU64       0.0297
     20  CG        86.8510    4.4180   58.3640 C.3    64  LEU64       0.0022
     21  CD1       85.3940    4.0770   58.6400 C.3    64  LEU64       0.0001
     22  CD2       87.7500    3.7440   59.3820 C.3    64  LEU64       0.0001
     23  N         77.4410   -7.1540   40.9370 N.3   249  GLY249     -0.1210
     24  CA        78.6070   -7.5970   40.1940 C.3   249  GLY249      0.1956
     25  C         79.9480   -7.2670   40.8210 C.2   249  GLY249      0.2612
     26  O         80.0360   -6.8750   41.9900 O.2   249  GLY249     -0.2717
     27  N         81.0030   -7.4290   40.0290 N.am  250  LYS250     -0.1965
     28  CA        82.3590   -7.1520   40.4820 C.3   250  LYS250      0.1728
     29  C         82.5100   -5.7280   40.9920 C.2   250  LYS250      0.2617
     30  O         81.9430   -4.7890   40.4360 O.2   250  LYS250     -0.2715
     31  CB        83.3570   -7.3650   39.3390 C.3   250  LYS250      0.0311
     32  CG        83.6430   -8.8180   38.9850 C.3   250  LYS250      0.0038
     33  CD        84.5580   -9.4830   40.0110 C.3   250  LYS250      0.0206
     34  CE        85.0870  -10.8110   39.4830 C.3   250  LYS250      0.1093
     35  NZ        86.0640  -11.4540   40.4140 N.3   250  LYS250     -0.1314
     36  N         83.2840   -5.5750   42.0580 N.am  251  GLY251     -0.1940
     37  CA        83.5310   -4.2540   42.5940 C.3   251  GLY251      0.2014
     38  C         82.3710   -3.5310   43.2400 C.2   251  GLY251      0.2639
     39  O         81.2870   -4.0790   43.4460 O.2   251  GLY251     -0.2714
     40  N         82.6180   -2.2640   43.5390 N.am  252  THR252     -0.1950
     41  CA        81.6430   -1.4210   44.2090 C.3   252  THR252      0.1897
     42  C         81.7860    0.0190   43.7370 C.2   252  THR252      0.2313
     43  O         82.9030    0.5120   43.5770 O.2   252  THR252     -0.2863
     44  CB        81.9030   -1.4280   45.7300 C.3   252  THR252      0.1794
     45  OG1       82.0850   -2.7740   46.1820 O.3   252  THR252     -0.2208
     46  CG2       80.7430   -0.7920   46.4840 C.3   252  THR252      0.0378
     47  N         81.6290    2.9300   45.1880 N.3   254  ASP254     -0.1239
     48  CA        81.6390    3.5410   46.5110 C.3   254  ASP254      0.1674
     49  C         81.0750    4.9450   46.5820 C.2   254  ASP254      0.2266
     50  O         80.4280    5.2980   47.5670 O.2   254  ASP254     -0.2867
     51  CB        83.0610    3.5290   47.0620 C.3   254  ASP254      0.1410
     52  CG        83.6560    2.1400   47.0740 C.2   254  ASP254      0.3668
     53  OD1       83.3290    1.3540   47.9850 O.co2 254  ASP254     -0.2456
     54  OD2       84.4380    1.8320   46.1520 O.co2 254  ASP254     -0.2456
     55  N         79.6110   -6.8000   50.1010 N.3   291  ASP291     -0.1225
     56  CA        80.3720   -5.9700   49.1700 C.3   291  ASP291      0.1805
     57  C         81.5130   -5.1520   49.7590 C.2   291  ASP291      0.2598
     58  O         82.3140   -4.5930   49.0150 O.2   291  ASP291     -0.2718
     59  CB        79.4340   -5.0230   48.4050 C.3   291  ASP291      0.1424
     60  CG        79.4730   -5.2600   46.9050 C.2   291  ASP291      0.3668
     61  OD1       79.1010   -6.3730   46.4870 O.co2 291  ASP291     -0.2456
     62  OD2       79.8790   -4.3470   46.1480 O.co2 291  ASP291     -0.2456
     63  N         81.5990   -5.0790   51.0830 N.am  292  THR292     -0.1939
     64  CA        82.6560   -4.2950   51.7100 C.3   292  THR292      0.2028
     65  C         83.2900   -5.0580   52.8650 C.2   292  THR292      0.2642
     66  O         82.7470   -6.0660   53.3200 O.2   292  THR292     -0.2714
     67  CB        82.1040   -2.9390   52.2240 C.3   292  THR292      0.1808
     68  OG1       81.0890   -3.1720   53.2070 O.3   292  THR292     -0.2208
     69  CG2       81.5110   -2.1350   51.0630 C.3   292  THR292      0.0379
     70  N         84.4340   -4.5670   53.3360 N.am  293  LYS293     -0.1963
     71  CA        85.1530   -5.2120   54.4330 C.3   293  LYS293      0.1728
     72  C         85.6180   -4.2430   55.5150 C.2   293  LYS293      0.2617
     73  O         85.5860   -3.0220   55.3520 O.2   293  LYS293     -0.2715
     74  CB        86.4030   -5.9320   53.9140 C.3   293  LYS293      0.0311
     75  CG        86.2000   -6.8940   52.7610 C.3   293  LYS293      0.0038
     76  CD        87.4500   -7.7550   52.6020 C.3   293  LYS293      0.0206
     77  CE        87.3670   -8.6930   51.4090 C.3   293  LYS293      0.1093
     78  NZ        87.5210   -7.9800   50.1070 N.3   293  LYS293     -0.1314
     79  N         86.0620   -4.8250   56.6240 N.am  294  GLY294     -0.1940
     80  CA        86.6060   -4.0610   57.7300 C.3   294  GLY294      0.2014
     81  C         85.7900   -2.9720   58.3900 C.2   294  GLY294      0.2639
     82  O         84.5720   -3.0710   58.5360 O.2   294  GLY294     -0.2714
     83  N         86.4940   -1.9280   58.8150 N.am  295  ASP295     -0.1957
     84  CA        85.8610   -0.8090   59.4970 C.3   295  ASP295      0.1840
     85  C         84.9600   -0.0100   58.5670 C.2   295  ASP295      0.2622
     86  O         84.0060    0.6210   59.0150 O.2   295  ASP295     -0.2715
     87  CB        86.9260    0.0750   60.1480 C.3   295  ASP295      0.1450
     88  CG        87.7330   -0.6770   61.1960 C.2   295  ASP295      0.3671
     89  OD1       87.1500   -1.5490   61.8690 O.co2 295  ASP295     -0.2456
     90  OD2       88.9400   -0.3970   61.3480 O.co2 295  ASP295     -0.2456
     91  N         85.2630   -0.0470   57.2740 N.am  296  TYR296     -0.1974
     92  CA        84.4440    0.6310   56.2740 C.3   296  TYR296      0.1639
     93  C         83.0840   -0.0760   56.2850 C.2   296  TYR296      0.2290
     94  O         82.0310    0.5670   56.3660 O.2   296  TYR296     -0.2864
     95  CB        85.1330    0.5260   54.9110 C.3   296  TYR296      0.0560
     96  CG        84.3060    0.9350   53.7110 C.ar  296  TYR296     -0.0198
     97  CD1       83.5020    2.0770   53.7360 C.ar  296  TYR296     -0.0009
     98  CD2       84.3650    0.1950   52.5310 C.ar  296  TYR296     -0.0009
     99  CE1       82.7750    2.4690   52.6050 C.ar  296  TYR296      0.0417
    100  CE2       83.6500    0.5790   51.4010 C.ar  296  TYR296      0.0417
    101  CZ        82.8590    1.7150   51.4460 C.ar  296  TYR296      0.1957
    102  OH        82.1570    2.0970   50.3240 O.3   296  TYR296     -0.2866
@<TRIPOS>BOND
     1    32    31    1
     2    32    33    1
     3    31    28    1
     4    34    33    1
     5    34    35    1
     6    27    28    1
     7    27    25   am
     8    24    25    1
     9    24    23    1
    10    30    29    2
    11    28    29    1
    12    25    26    2
    13    29    36   am
    14    36    37    1
    15    37    38    1
    16    38    39    2
    17    38    40   am
    18    40    41    1
    19    43    42    2
    20    42    41    1
    21    41    44    1
    22    47    48    1
    23    44    45    1
    24    44    46    1
    25    62    60   ar
    26    54    52   ar
    27    61    60   ar
    28    48    49    1
    29    48    51    1
    30    49    50    2
    31    60    59    1
    32    51    52    1
    33    52    53   ar
    34    14    13   ar
    35    14    12   ar
    36    59    56    1
    37    13    11   ar
    38    58    57    2
    39    12    10   ar
    40    56    57    1
    41    56    55    1
    42    11    10   ar
    43    57    63   am
    44    78    77    1
    45    10     9    1
    46   102   101    1
    47    69    67    1
    48    63    64    1
    49   100   101   ar
    50   100    98   ar
    51    77    76    1
    52   101    99   ar
    53     9     6    1
    54    64    67    1
    55    64    65    1
    56     6     5    1
    57     6     7    1
    58     5     3   am
    59    67    68    1
    60     2     3    1
    61     2     1    1
    62     3     4    2
    63    98    96   ar
    64    76    75    1
    65    99    97   ar
    66    75    74    1
    67    65    66    2
    68    65    70   am
    69    70    71    1
    70     7     8    2
    71     7    15   am
    72    96    97   ar
    73    96    95    1
    74    74    71    1
    75    71    72    1
    76    15    16    1
    77    95    92    1
    78    73    72    2
    79    72    79   am
    80    16    17    1
    81    16    19    1
    82    17    18    2
    83    92    93    1
    84    92    91    1
    85    93    94    2
    86    79    80    1
    87    19    20    1
    88    91    85   am
    89    80    81    1
    90    20    21    1
    91    20    22    1
    92    81    82    2
    93    81    83   am
    94    85    86    2
    95    85    84    1
    96    83    84    1
    97    84    87    1
    98    87    88    1
    99    88    90   ar
   100    88    89   ar
