@<TRIPOS>MOLECULE
tmp/2hz0A00.pdb
 220 208 0 0 0
SMALL
GASTEIGER

@<TRIPOS>ATOM
      1  N         28.3730   40.6340   58.0970 N.3    16  LEU16      -0.1245
      2  CA        28.3610   41.3730   56.8640 C.3    16  LEU16       0.1561
      3  C         28.5880   42.8120   57.3000 C.2    16  LEU16       0.2260
      4  O         29.2130   43.6010   56.6010 O.2    16  LEU16      -0.2867
      5  CB        27.0280   41.1920   56.1590 C.3    16  LEU16       0.0270
      6  CG        26.7290   39.7970   55.5950 C.3    16  LEU16       0.0019
      7  CD1       25.4370   39.8250   54.8090 C.3    16  LEU16       0.0001
      8  CD2       27.9170   39.3080   54.6920 C.3    16  LEU16       0.0001
      9  N         24.6040   42.4320   61.3970 N.3    24  VAL24      -0.1245
     10  CA        23.9370   41.6070   60.3530 C.3    24  VAL24       0.1561
     11  C         24.8670   40.5000   59.9290 C.2    24  VAL24       0.2260
     12  O         26.0240   40.7460   59.6530 O.2    24  VAL24      -0.2867
     13  CB        23.5470   42.4570   59.1040 C.3    24  VAL24       0.0252
     14  CG1       22.9140   41.5500   58.0010 C.3    24  VAL24       0.0019
     15  CG2       22.6190   43.5920   59.4910 C.3    24  VAL24       0.0019
     16  N         20.2410   37.2830   54.7900 N.3    37  ALA37      -0.1231
     17  CA        20.9570   38.2170   55.6770 C.3    37  ALA37       0.1694
     18  C         20.0360   38.2640   56.9520 C.2    37  ALA37       0.2592
     19  O         18.7970   38.3270   56.8640 O.2    37  ALA37      -0.2718
     20  CB        21.0480   39.6190   55.0150 C.3    37  ALA37       0.0304
     21  N         20.6450   38.1870   58.1050 N.am   38  VAL38      -0.1966
     22  CA        19.8920   38.0910   59.3980 C.3    38  VAL38       0.1727
     23  C         20.4940   39.0780   60.3560 C.2    38  VAL38       0.2616
     24  O         21.6920   39.0550   60.6190 O.2    38  VAL38      -0.2715
     25  CB        20.0480   36.6400   60.0410 C.3    38  VAL38       0.0290
     26  CG1       19.2630   36.5140   61.4210 C.3    38  VAL38       0.0023
     27  CG2       19.5130   35.5790   59.0370 C.3    38  VAL38       0.0023
     28  N         19.6620   39.9620   60.8500 N.am   39  LYS39      -0.1977
     29  CA        20.1130   40.9980   61.7970 C.3    39  LYS39       0.1596
     30  C         19.8010   40.5120   63.2130 C.2    39  LYS39       0.2287
     31  O         18.7110   39.9890   63.4710 O.2    39  LYS39      -0.2864
     32  CB        19.3200   42.3000   61.5630 C.3    39  LYS39       0.0298
     33  CG        19.9090   43.5100   62.3160 C.3    39  LYS39       0.0038
     34  CD        19.0860   44.7350   62.0860 C.3    39  LYS39       0.0206
     35  CE        19.3120   45.2850   60.5900 C.3    39  LYS39       0.1093
     36  NZ        18.7120   46.6930   60.3850 N.3    39  LYS39      -0.1314
     37  N         11.2960   47.7300   64.0970 N.3    54  GLU54      -0.1245
     38  CA        11.9610   47.5690   62.7700 C.3    54  GLU54       0.1567
     39  C         11.2750   46.4020   62.0490 C.2    54  GLU54       0.2260
     40  O         10.7470   46.5530   60.9300 O.2    54  GLU54      -0.2867
     41  CB        13.4510   47.2790   62.9130 C.3    54  GLU54       0.0388
     42  CG        14.0800   47.0330   61.5170 C.3    54  GLU54       0.1160
     43  CD        15.5290   46.8530   61.5310 C.2    54  GLU54       0.3649
     44  OE1       16.1790   47.3170   62.4620 O.co2  54  GLU54      -0.2457
     45  OE2       16.0550   46.2760   60.5740 O.co2  54  GLU54      -0.2457
     46  N          7.6170   47.3160   60.8930 N.3    57  VAL57      -0.1231
     47  CA         7.5430   48.2480   59.7550 C.3    57  VAL57       0.1692
     48  C          7.9340   47.5110   58.4920 C.2    57  VAL57       0.2591
     49  O          7.3240   47.6760   57.4420 O.2    57  VAL57      -0.2718
     50  CB         8.4700   49.5080   59.9630 C.3    57  VAL57       0.0266
     51  CG1        8.9890   50.0950   58.6050 C.3    57  VAL57       0.0020
     52  CG2        7.7400   50.5750   60.7790 C.3    57  VAL57       0.0020
     53  N          8.9560   46.6930   58.5850 N.am   58  MET58      -0.1979
     54  CA         9.4090   45.9800   57.3830 C.3    58  MET58       0.1605
     55  C          8.3070   45.1120   56.7030 C.2    58  MET58       0.2287
     56  O          8.3770   44.8190   55.5120 O.2    58  MET58      -0.2864
     57  CB        10.6930   45.1830   57.6850 C.3    58  MET58       0.0413
     58  CG        11.9740   46.0990   57.4980 C.3    58  MET58       0.0598
     59  SD        13.4060   45.3420   58.1010 S.3    58  MET58      -0.1393
     60  CE        12.8520   43.7850   57.9860 C.3    58  MET58       0.0692
     61  N          6.2190   46.9350   54.0400 N.3    61  ILE61      -0.1245
     62  CA         6.8890   47.5020   52.8430 C.3    61  ILE61       0.1561
     63  C          6.9350   46.5430   51.6860 C.2    61  ILE61       0.2260
     64  O          7.3740   45.3990   51.8410 O.2    61  ILE61      -0.2867
     65  CB         8.3450   47.9750   53.1960 C.3    61  ILE61       0.0252
     66  CG1        8.2680   49.1600   54.1540 C.3    61  ILE61       0.0019
     67  CG2        9.1310   48.4270   51.9080 C.3    61  ILE61       0.0019
     68  CD1        9.5670   49.4900   54.8790 C.3    61  ILE61       0.0001
     69  N         13.5210   48.2850   47.8370 N.3    66  LEU66      -0.1231
     70  CA        13.6030   48.3500   49.3220 C.3    66  LEU66       0.1693
     71  C         13.8880   46.9300   49.6060 C.2    66  LEU66       0.2591
     72  O         13.2330   46.1020   49.0970 O.2    66  LEU66      -0.2718
     73  CB        12.2610   48.8280   49.9060 C.3    66  LEU66       0.0284
     74  CG        12.1630   50.3330   49.8340 C.3    66  LEU66       0.0019
     75  CD1       10.7770   50.9830   50.0990 C.3    66  LEU66       0.0001
     76  CD2       13.2770   51.0200   50.7160 C.3    66  LEU66       0.0001
     77  N         14.9830   46.6320   50.2970 N.am   67  VAL67      -0.1980
     78  CA        15.3420   45.2650   50.5620 C.3    67  VAL67       0.1595
     79  C         14.1580   44.4370   51.0730 C.2    67  VAL67       0.2287
     80  O         13.2620   44.9280   51.8180 O.2    67  VAL67      -0.2864
     81  CB        16.5600   45.1680   51.5070 C.3    67  VAL67       0.0276
     82  CG1       16.1150   45.4900   53.0210 C.3    67  VAL67       0.0022
     83  CG2       17.2260   43.7740   51.4030 C.3    67  VAL67       0.0022
     84  N         15.6750   39.2290   62.2020 N.3    81  ILE81      -0.1245
     85  CA        14.9390   39.8250   61.1040 C.3    81  ILE81       0.1561
     86  C         15.7130   39.3050   59.9090 C.2    81  ILE81       0.2260
     87  O         16.9510   39.3680   59.8650 O.2    81  ILE81      -0.2867
     88  CB        14.9020   41.3380   61.1020 C.3    81  ILE81       0.0252
     89  CG1       14.2240   41.8220   62.3890 C.3    81  ILE81       0.0019
     90  CG2       14.0680   41.8310   59.8570 C.3    81  ILE81       0.0019
     91  CD1       14.3790   43.2770   62.6470 C.3    81  ILE81       0.0001
     92  N         16.1820   38.9910   55.7450 N.3    83  THR83      -0.1203
     93  CA        15.9140   39.6240   54.4600 C.3    83  THR83       0.1994
     94  C         16.6960   38.8620   53.3470 C.2    83  THR83       0.2618
     95  O         17.5180   38.0050   53.5970 O.2    83  THR83      -0.2717
     96  CB        16.4460   41.1120   54.4230 C.3    83  THR83       0.1784
     97  OG1       17.8530   41.0990   54.4300 O.3    83  THR83      -0.2211
     98  CG2       16.0040   41.9040   55.5730 C.3    83  THR83       0.0376
     99  N         16.4780   39.2410   52.1200 N.am   84  GLU84      -0.1965
    100  CA        17.2060   38.5850   51.0220 C.3    84  GLU84       0.1733
    101  C         18.6300   39.0370   51.1770 C.2    84  GLU84       0.2616
    102  O         18.8730   40.0940   51.7700 O.2    84  GLU84      -0.2715
    103  CB        16.6410   39.1200   49.6790 C.3    84  GLU84       0.0429
    104  CG        16.9260   40.6420   49.5110 C.3    84  GLU84       0.1163
    105  CD        16.2530   41.2260   48.3100 C.2    84  GLU84       0.3649
    106  OE1       15.7120   42.3650   48.3580 O.co2  84  GLU84      -0.2457
    107  OE2       16.3020   40.5520   47.2960 O.co2  84  GLU84      -0.2457
    108  N         19.5630   38.2330   50.6420 N.am   85  PHE85      -0.1960
    109  CA        21.0100   38.5200   50.5840 C.3    85  PHE85       0.1771
    110  C         21.2420   39.2290   49.1870 C.2    85  PHE85       0.2619
    111  O         20.6710   38.8280   48.1680 O.2    85  PHE85      -0.2715
    112  CB        21.7990   37.1800   50.6730 C.3    85  PHE85       0.0574
    113  CG        23.2540   37.3120   50.4190 C.ar   85  PHE85      -0.0200
    114  CD1       24.0930   37.6940   51.4010 C.ar   85  PHE85      -0.0042
    115  CD2       23.8050   36.9670   49.1610 C.ar   85  PHE85      -0.0042
    116  CE1       25.3960   37.8300   51.1860 C.ar   85  PHE85      -0.0003
    117  CE2       25.1640   37.1030   48.9210 C.ar   85  PHE85      -0.0003
    118  CZ        25.9730   37.5080   49.9350 C.ar   85  PHE85      -0.0000
    119  N         21.9520   40.3390   49.2030 N.am   86  MET86      -0.1977
    120  CA        22.1810   41.1590   48.0060 C.3    86  MET86       0.1605
    121  C         23.5780   40.8600   47.5480 C.2    86  MET86       0.2287
    122  O         24.5580   41.2750   48.1570 O.2    86  MET86      -0.2864
    123  CB        21.9860   42.6350   48.3280 C.3    86  MET86       0.0413
    124  CG        20.5390   42.9700   48.5940 C.3    86  MET86       0.0598
    125  SD        19.3510   42.9410   47.1870 S.3    86  MET86      -0.1393
    126  CE        18.9800   41.6030   47.1770 C.3    86  MET86       0.0692
    127  N         26.7370   43.3030   47.8560 N.3    89  GLY89      -0.1225
    128  CA        27.0990   44.0160   49.1020 C.3    89  GLY89       0.1811
    129  C         26.6340   45.4520   49.0910 C.2    89  GLY89       0.2280
    130  O         25.7480   45.8560   48.3200 O.2    89  GLY89      -0.2866
    131  N          8.5100   55.2300   50.5470 N.3   122  LEU122     -0.1245
    132  CA         8.6000   55.3840   52.0440 C.3   122  LEU122      0.1561
    133  C          7.8710   56.6230   52.3780 C.2   122  LEU122      0.2260
    134  O          7.1260   56.7020   53.3560 O.2   122  LEU122     -0.2867
    135  CB        10.1160   55.5150   52.5060 C.3   122  LEU122      0.0270
    136  CG        10.8250   54.1700   52.4310 C.3   122  LEU122      0.0019
    137  CD1       12.2470   54.2060   52.9750 C.3   122  LEU122      0.0001
    138  CD2       10.0520   53.1450   53.2170 C.3   122  LEU122      0.0001
    139  N          7.0320   56.9560   56.3680 N.3   127  PHE127     -0.1227
    140  CA         8.1050   56.2500   57.0830 C.3   127  PHE127      0.1736
    141  C          9.3730   57.0970   56.8840 C.2   127  PHE127      0.2595
    142  O          9.6580   57.5680   55.7200 O.2   127  PHE127     -0.2718
    143  CB         8.3080   54.9020   56.4230 C.3   127  PHE127      0.0547
    144  CG         7.2690   53.8750   56.7590 C.ar  127  PHE127     -0.0202
    145  CD1        6.2490   54.1410   57.6660 C.ar  127  PHE127     -0.0042
    146  CD2        7.3200   52.6180   56.1610 C.ar  127  PHE127     -0.0042
    147  CE1        5.2570   53.1360   57.9700 C.ar  127  PHE127     -0.0003
    148  CE2        6.3660   51.5940   56.4710 C.ar  127  PHE127     -0.0003
    149  CZ         5.3260   51.8690   57.3770 C.ar  127  PHE127     -0.0000
    150  N         10.1520   57.2950   57.9530 N.am  128  ILE128     -0.1966
    151  CA        11.4040   58.1010   57.8680 C.3   128  ILE128      0.1727
    152  C         12.5040   57.1290   58.2310 C.2   128  ILE128      0.2616
    153  O         12.4190   56.4080   59.2140 O.2   128  ILE128     -0.2715
    154  CB        11.4140   59.2980   58.8960 C.3   128  ILE128      0.0290
    155  CG1       10.1320   60.1510   58.7140 C.3   128  ILE128      0.0022
    156  CG2       12.7300   60.0910   58.7330 C.3   128  ILE128      0.0023
    157  CD1        9.8050   61.1860   59.8990 C.3   128  ILE128      0.0001
    158  N         13.5020   57.0650   57.3720 N.am  129  HIS129     -0.1973
    159  CA        14.5540   56.0870   57.4650 C.3   129  HIS129      0.1656
    160  C         15.5290   56.4790   58.5990 C.2   129  HIS129      0.2291
    161  O         15.9800   55.6340   59.3100 O.2   129  HIS129     -0.2864
    162  CB        15.4340   56.1290   56.0590 C.3   129  HIS129      0.0771
    163  CG        16.3880   54.9980   55.9210 C.ar  129  HIS129      0.0820
    164  ND1       17.5400   54.9150   56.6430 N.ar  129  HIS129     -0.2267
    165  CD2       16.3420   53.8850   55.1560 C.ar  129  HIS129      0.1154
    166  CE1       18.1630   53.7890   56.3530 C.ar  129  HIS129      0.1986
    167  NE2       17.4750   53.1670   55.4300 N.ar  129  HIS129     -0.2212
    168  N         22.2220   48.6660   49.0490 N.3   138  LEU138     -0.1245
    169  CA        22.7450   47.3690   48.6670 C.3   138  LEU138      0.1561
    170  C         22.6730   47.1430   47.1390 C.2   138  LEU138      0.2260
    171  O         21.8020   47.6620   46.5020 O.2   138  LEU138     -0.2867
    172  CB        21.9330   46.2540   49.3230 C.3   138  LEU138      0.0270
    173  CG        21.8520   46.4190   50.9190 C.3   138  LEU138      0.0019
    174  CD1       20.8930   45.3340   51.4520 C.3   138  LEU138      0.0001
    175  CD2       23.2400   46.1270   51.4620 C.3   138  LEU138      0.0001
    176  N         17.4670   50.2100   48.9370 N.3   147  VAL147     -0.1231
    177  CA        17.7550   50.9200   50.2150 C.3   147  VAL147      0.1692
    178  C         17.5360   49.8870   51.3390 C.2   147  VAL147      0.2592
    179  O         16.6820   49.0010   51.2520 O.2   147  VAL147     -0.2718
    180  CB        16.8440   52.1220   50.3450 C.3   147  VAL147      0.0266
    181  CG1       17.0610   52.9190   51.7530 C.3   147  VAL147      0.0020
    182  CG2       17.0310   53.0430   49.2220 C.3   147  VAL147      0.0020
    183  N         18.3900   49.9230   52.3450 N.am  148  ALA148     -0.1966
    184  CA        18.2820   48.9760   53.4340 C.3   148  ALA148      0.1728
    185  C         18.8510   49.7070   54.6880 C.2   148  ALA148      0.2616
    186  O         18.9360   50.9000   54.7010 O.2   148  ALA148     -0.2715
    187  CB        19.0370   47.6980   53.1350 C.3   148  ALA148      0.0334
    188  N         19.2350   48.9750   55.7180 N.am  149  ASP149     -0.1957
    189  CA        19.8490   49.6330   56.9380 C.3   149  ASP149      0.1840
    190  C         20.5800   48.4980   57.6200 C.2   149  ASP149      0.2622
    191  O         19.9840   47.4550   57.8910 O.2   149  ASP149     -0.2715
    192  CB        18.7340   50.1810   57.8360 C.3   149  ASP149      0.1450
    193  CG        19.2730   51.1140   58.9360 C.2   149  ASP149      0.3671
    194  OD1       20.4660   50.9980   59.2160 O.co2 149  ASP149     -0.2456
    195  OD2       18.5720   52.0520   59.3650 O.co2 149  ASP149     -0.2456
    196  N         21.9010   48.6230   57.7830 N.am  150  PHE150     -0.1974
    197  CA        22.6600   47.5500   58.4330 C.3   150  PHE150      0.1639
    198  C         22.5420   47.6790   59.9670 C.2   150  PHE150      0.2290
    199  O         22.9120   46.7580   60.6720 O.2   150  PHE150     -0.2864
    200  CB        24.1650   47.7140   58.1630 C.3   150  PHE150      0.0560
    201  CG        24.6060   47.1640   56.8710 C.ar  150  PHE150     -0.0200
    202  CD1       24.3940   47.8840   55.6900 C.ar  150  PHE150     -0.0042
    203  CD2       25.2410   45.9420   56.8070 C.ar  150  PHE150     -0.0042
    204  CE1       24.8010   47.4060   54.5230 C.ar  150  PHE150     -0.0003
    205  CE2       25.6600   45.4710   55.5690 C.ar  150  PHE150     -0.0003
    206  CZ        25.4580   46.2270   54.4610 C.ar  150  PHE150     -0.0000
    207  N         17.4250   49.7160   63.3130 N.3   153  SER153     -0.1217
    208  CA        16.8520   50.9530   62.7400 C.3   153  SER153      0.1889
    209  C         16.3380   52.0200   63.6660 C.2   153  SER153      0.2288
    210  O         15.6330   51.7370   64.6000 O.2   153  SER153     -0.2866
    211  CB        15.7620   50.6390   61.6790 C.3   153  SER153      0.2089
    212  OG        15.0430   51.8190   61.4210 O.3   153  SER153     -0.2183
    213  N         14.2650   54.2100   62.4700 N.3   155  LEU155     -0.1245
    214  CA        13.1780   54.7730   61.6380 C.3   155  LEU155      0.1561
    215  C         12.1990   55.4480   62.5550 C.2   155  LEU155      0.2260
    216  O         12.1410   55.1600   63.7440 O.2   155  LEU155     -0.2867
    217  CB        12.4200   53.6270   60.8690 C.3   155  LEU155      0.0270
    218  CG        11.7020   52.5890   61.7490 C.3   155  LEU155      0.0019
    219  CD1       10.2880   53.0530   62.1650 C.3   155  LEU155      0.0001
    220  CD2       11.7470   51.1280   61.2610 C.3   155  LEU155      0.0001
@<TRIPOS>BOND
     1   171   170    2
     2   170   169    1
     3   126   125    1
     4   125   124    1
     5   107   105   ar
     6   121   120    1
     7   121   122    2
     8    69    70    1
     9   127   128    1
    10   120   123    1
    11   120   119    1
    12   111   110    2
    13   105   106   ar
    14   105   104    1
    15   130   129    2
    16   123   124    1
    17   169   168    1
    18   169   172    1
    19   117   115   ar
    20   117   118   ar
    21   176   177    1
    22   129   128    1
    23    72    71    2
    24   115   113   ar
    25   110   119   am
    26   110   109    1
    27   182   180    1
    28    70    71    1
    29    70    73    1
    30   172   173    1
    31   104   103    1
    32    71    77   am
    33   103   100    1
    34    74    73    1
    35    74    75    1
    36    74    76    1
    37   118   116   ar
    38   177   180    1
    39   177   178    1
    40    77    78    1
    41   180   181    1
    42   113   112    1
    43   113   114   ar
    44   131   132    1
    45    78    79    1
    46    78    81    1
    47   109   108    1
    48   109   112    1
    49   108   101   am
    50   173   174    1
    51   173   175    1
    52   100   101    1
    53   100    99    1
    54    79    80    2
    55   101   102    2
    56   116   114   ar
    57   179   178    2
    58   178   183   am
    59    83    81    1
    60    81    82    1
    61    63    64    2
    62    63    62    1
    63    67    65    1
    64   132   133    1
    65   132   135    1
    66    99    94   am
    67   183   184    1
    68   133   134    2
    69   136   135    1
    70   136   137    1
    71   136   138    1
    72    62    65    1
    73    62    61    1
    74   187   184    1
    75    65    66    1
    76    94    95    2
    77    94    93    1
    78   184   185    1
    79    66    68    1
    80    96    97    1
    81    96    93    1
    82    96    98    1
    83    93    92    1
    84   206   204   ar
    85   206   205   ar
    86   204   202   ar
    87   185   186    2
    88   185   188   am
    89     8     6    1
    90    16    17    1
    91     7     6    1
    92    20    17    1
    93   165   167   ar
    94   165   163   ar
    95   167   166   ar
    96    56    55    2
    97   205   203   ar
    98     6     5    1
    99    17    18    1
   100   202   201   ar
   101   188   189    1
   102   142   141    2
   103   163   162    1
   104   163   164   ar
   105   162   159    1
   106     5     2    1
   107   146   148   ar
   108   146   144   ar
   109   166   164   ar
   110   139   140    1
   111   143   144    1
   112   143   140    1
   113   148   149   ar
   114     4     3    2
   115    55    54    1
   116   144   145   ar
   117   203   201   ar
   118    19    18    2
   119     2     3    1
   120     2     1    1
   121   201   200    1
   122   141   140    1
   123   141   150   am
   124   189   190    1
   125   189   192    1
   126    18    21   am
   127   158   159    1
   128   158   152   am
   129   149   147   ar
   130    54    57    1
   131    54    53    1
   132    49    48    2
   133   159   160    1
   134    58    57    1
   135    58    59    1
   136   190   196   am
   137   190   191    2
   138   145   147   ar
   139   196   197    1
   140   192   193    1
   141   151   150    1
   142   151   152    1
   143   151   154    1
   144    60    59    1
   145    14    13    1
   146    21    22    1
   147   200   197    1
   148   152   153    2
   149   197   198    1
   150    48    53   am
   151    48    47    1
   152   160   161    2
   153    51    50    1
   154   155   154    1
   155   155   157    1
   156   156   154    1
   157   193   194   ar
   158   193   195   ar
   159    27    25    1
   160    13    15    1
   161    13    10    1
   162    22    25    1
   163    22    23    1
   164    12    11    2
   165    47    50    1
   166    47    46    1
   167    90    88    1
   168    87    86    2
   169    86    85    1
   170    11    10    1
   171    50    52    1
   172   198   199    2
   173    25    26    1
   174    10     9    1
   175    23    24    2
   176    23    28   am
   177    36    35    1
   178    45    43   ar
   179    35    34    1
   180    28    29    1
   181   217   214    1
   182   217   218    1
   183    40    39    2
   184    88    85    1
   185    88    89    1
   186    85    84    1
   187   220   218    1
   188   212   211    1
   189    42    43    1
   190    42    41    1
   191    43    44   ar
   192    32    29    1
   193    32    33    1
   194   214   213    1
   195   214   215    1
   196   211   208    1
   197   218   219    1
   198    29    30    1
   199    39    38    1
   200    34    33    1
   201    89    91    1
   202   215   216    2
   203   208   207    1
   204   208   209    1
   205    38    41    1
   206    38    37    1
   207    30    31    2
   208   209   210    2
