@<TRIPOS>MOLECULE
tmp/2hz4B00.pdb
 155 144 0 0 0
SMALL
GASTEIGER

@<TRIPOS>ATOM
      1  N         56.0290   13.9660   65.6380 N.3    16  LEU16      -0.1245
      2  CA        56.1760   14.7050   64.3580 C.3    16  LEU16       0.1561
      3  C         56.5980   16.1700   64.5100 C.2    16  LEU16       0.2260
      4  O         55.9870   16.9010   65.2650 O.2    16  LEU16      -0.2867
      5  CB        54.8710   14.6040   63.5750 C.3    16  LEU16       0.0270
      6  CG        54.5550   13.2190   63.0210 C.3    16  LEU16       0.0019
      7  CD1       53.1430   13.1890   62.4570 C.3    16  LEU16       0.0001
      8  CD2       55.5670   12.8000   61.9350 C.3    16  LEU16       0.0001
      9  N         48.9360   19.3280   73.1810 N.3    17  GLY17      -0.1225
     10  CA        48.7130   19.2280   71.7300 C.3    17  GLY17       0.1811
     11  C         49.8410   18.5960   70.9040 C.2    17  GLY17       0.2280
     12  O         50.2000   19.1450   69.8590 O.2    17  GLY17      -0.2866
     13  N         51.6210   15.6420   68.4510 N.3    19  VAL19      -0.1245
     14  CA        51.1840   14.8320   67.2650 C.3    19  VAL19       0.1561
     15  C         52.1750   13.6990   66.9970 C.2    19  VAL19       0.2260
     16  O         53.3870   13.8930   67.0210 O.2    19  VAL19      -0.2867
     17  CB        51.0120   15.6870   65.9740 C.3    19  VAL19       0.0252
     18  CG1       50.3710   14.8790   64.8280 C.3    19  VAL19       0.0019
     19  CG2       50.1720   16.9230   66.2790 C.3    19  VAL19       0.0019
     20  N         48.1930   10.5900   61.0470 N.3    32  ALA32      -0.1245
     21  CA        48.6840   11.5380   62.0230 C.3    32  ALA32       0.1562
     22  C         47.6370   11.5470   63.1410 C.2    32  ALA32       0.2260
     23  O         46.4190   11.6240   62.8890 O.2    32  ALA32      -0.2867
     24  CB        48.8350   12.8990   61.4120 C.3    32  ALA32       0.0290
     25  N         46.6720   13.4570   66.4860 N.3    34  LYS34      -0.1245
     26  CA        46.8340   14.5940   67.3890 C.3    34  LYS34       0.1561
     27  C         46.2580   14.1870   68.7340 C.2    34  LYS34       0.2260
     28  O         45.1400   13.7100   68.7990 O.2    34  LYS34      -0.2867
     29  CB        46.1970   15.8810   66.8720 C.3    34  LYS34       0.0271
     30  CG        46.3050   16.9980   67.9050 C.3    34  LYS34       0.0035
     31  CD        46.3960   18.3720   67.2670 C.3    34  LYS34       0.0206
     32  CE        46.3950   19.4610   68.3300 C.3    34  LYS34       0.1093
     33  NZ        45.6480   20.5560   67.8140 N.3    34  LYS34      -0.1314
     34  N         38.0410   22.1920   67.9180 N.3    49  GLU49      -0.1245
     35  CA        38.8300   21.6720   66.7990 C.3    49  GLU49       0.1567
     36  C         38.2210   20.4040   66.1670 C.2    49  GLU49       0.2260
     37  O         37.9650   20.3810   64.9750 O.2    49  GLU49      -0.2867
     38  CB        40.2730   21.4130   67.2550 C.3    49  GLU49       0.0388
     39  CG        41.2420   20.8890   66.2030 C.3    49  GLU49       0.1160
     40  CD        42.6830   20.7880   66.6960 C.2    49  GLU49       0.3649
     41  OE1       42.9680   20.9660   67.9120 O.co2  49  GLU49      -0.2457
     42  OE2       43.5630   20.5190   65.8540 O.co2  49  GLU49      -0.2457
     43  N         36.4150   20.1020   62.3210 N.3    53  MET53      -0.1245
     44  CA        36.9420   19.1290   61.3490 C.3    53  MET53       0.1570
     45  C         35.9060   18.1310   60.8400 C.2    53  MET53       0.2261
     46  O         36.1040   17.5470   59.7600 O.2    53  MET53      -0.2867
     47  CB        38.1360   18.3720   61.9470 C.3    53  MET53       0.0387
     48  CG        39.3510   19.2530   62.3680 C.3    53  MET53       0.0595
     49  SD        40.9940   18.6210   61.8140 S.3    53  MET53      -0.1393
     50  CE        41.3330   17.4900   62.8710 C.3    53  MET53       0.0692
     51  N         43.5930   19.1690   55.2760 N.3    62  VAL62      -0.1245
     52  CA        43.8860   17.8260   55.8690 C.3    62  VAL62       0.1561
     53  C         42.6020   17.3050   56.4770 C.2    62  VAL62       0.2260
     54  O         41.8770   18.0520   57.1060 O.2    62  VAL62      -0.2867
     55  CB        45.0780   17.8140   56.8820 C.3    62  VAL62       0.0252
     56  CG1       44.9630   18.9140   57.8700 C.3    62  VAL62       0.0019
     57  CG2       45.1290   16.5390   57.6780 C.3    62  VAL62       0.0019
     58  N         43.8260   12.0780   61.6080 N.3    78  THR78      -0.1203
     59  CA        43.6840   12.5840   60.2270 C.3    78  THR78       0.1994
     60  C         44.5160   11.7640   59.2000 C.2    78  THR78       0.2618
     61  O         45.2610   10.8450   59.5530 O.2    78  THR78      -0.2717
     62  CB        44.0670   14.0930   60.1390 C.3    78  THR78       0.1784
     63  OG1       45.4660   14.2320   60.3000 O.3    78  THR78      -0.2211
     64  CG2       43.5120   14.9240   61.2950 C.3    78  THR78       0.0376
     65  N         44.3910   12.1190   57.9230 N.am   79  GLU79      -0.1965
     66  CA        45.3160   11.6230   56.8870 C.3    79  GLU79       0.1733
     67  C         46.7600   12.0610   57.1770 C.2    79  GLU79       0.2616
     68  O         46.9780   13.1250   57.7590 O.2    79  GLU79      -0.2715
     69  CB        44.8980   12.0910   55.4710 C.3    79  GLU79       0.0429
     70  CG        44.9740   13.5930   55.1920 C.3    79  GLU79       0.1163
     71  CD        44.2670   13.9930   53.8840 C.2    79  GLU79       0.3649
     72  OE1       44.4480   13.3190   52.8410 O.co2  79  GLU79      -0.2457
     73  OE2       43.5230   15.0030   53.8790 O.co2  79  GLU79      -0.2457
     74  N         47.7090   11.2390   56.7430 N.am   80  PHE80      -0.1960
     75  CA        49.1270   11.4820   56.9050 C.3    80  PHE80       0.1771
     76  C         49.6730   12.0740   55.6080 C.2    80  PHE80       0.2619
     77  O         49.3020   11.6400   54.5230 O.2    80  PHE80      -0.2715
     78  CB        49.8720   10.1760   57.2450 C.3    80  PHE80       0.0574
     79  CG        51.3560   10.3560   57.3830 C.ar   80  PHE80      -0.0200
     80  CD1       51.8760   11.1770   58.3880 C.ar   80  PHE80      -0.0042
     81  CD2       52.2340    9.7750   56.4660 C.ar   80  PHE80      -0.0042
     82  CE1       53.2590   11.3800   58.4970 C.ar   80  PHE80      -0.0003
     83  CE2       53.6100    9.9630   56.5730 C.ar   80  PHE80      -0.0003
     84  CZ        54.1250   10.7730   57.5870 C.ar   80  PHE80      -0.0000
     85  N         50.6050   13.0100   55.7410 N.am   81  MET81      -0.1977
     86  CA        51.1430   13.7600   54.6360 C.3    81  MET81       0.1605
     87  C         52.5760   13.3090   54.3800 C.2    81  MET81       0.2287
     88  O         53.4500   13.3820   55.2590 O.2    81  MET81      -0.2864
     89  CB        51.0430   15.2500   54.9370 C.3    81  MET81       0.0413
     90  CG        49.5860   15.7010   55.0310 C.3    81  MET81       0.0598
     91  SD        48.5660   15.4580   53.5390 S.3    81  MET81      -0.1393
     92  CE        49.4950   16.1370   52.2380 C.3    81  MET81       0.0692
     93  N         55.8940   15.9500   54.0270 N.3    84  GLY84      -0.1210
     94  CA        56.3080   16.8280   55.1260 C.3    84  GLY84       0.1956
     95  C         55.8530   18.2550   54.9620 C.2    84  GLY84       0.2611
     96  O         54.9830   18.5220   54.1670 O.2    84  GLY84      -0.2717
     97  N         56.3920   19.1930   55.7150 N.am   85  ASN85      -0.1974
     98  CA        55.8130   20.5310   55.6760 C.3    85  ASN85       0.1688
     99  C         56.4090   21.2900   54.5730 C.2    85  ASN85       0.2292
    100  O         57.4610   20.9400   54.0900 O.2    85  ASN85      -0.2864
    101  CB        55.9340   21.3330   56.9860 C.3    85  ASN85       0.1181
    102  CG        57.3220   21.7720   57.2500 C.2    85  ASN85       0.2629
    103  OD1       58.2300   20.9450   57.2910 O.2    85  ASN85      -0.2716
    104  ND2       57.5150   23.0730   57.4440 N.am   85  ASN85      -0.0877
    105  N         54.6300   26.5940   57.6440 N.3   130  ARG130     -0.1231
    106  CA        54.8770   25.4840   58.5910 C.3   130  ARG130      0.1694
    107  C         53.6370   24.6280   58.8670 C.2   130  ARG130      0.2592
    108  O         53.7700   23.5010   59.3390 O.2   130  ARG130     -0.2718
    109  CB        55.4650   25.9850   59.9180 C.3   130  ARG130      0.0321
    110  CG        54.5290   26.8410   60.7430 C.3   130  ARG130      0.0489
    111  CD        55.1390   27.5550   61.9480 C.3   130  ARG130      0.2205
    112  NE        54.2300   28.5910   62.4820 N.pl3 130  ARG130     -0.0865
    113  CZ        54.1950   29.9080   62.1240 C.cat 130  ARG130      0.5346
    114  NH1       55.0280   30.4010   61.2190 N.pl3 130  ARG130      0.1354
    115  NH2       53.3270   30.7530   62.6910 N.pl3 130  ARG130      0.1354
    116  N         52.4560   25.1700   58.5770 N.am  131  ASN131     -0.1974
    117  CA        51.1850   24.4770   58.6900 C.3   131  ASN131      0.1688
    118  C         50.5740   24.0570   57.3760 C.2   131  ASN131      0.2292
    119  O         49.4270   23.5720   57.3710 O.2   131  ASN131     -0.2864
    120  CB        50.1990   25.3780   59.4300 C.3   131  ASN131      0.1181
    121  CG        50.6320   25.6570   60.8000 C.2   131  ASN131      0.2629
    122  OD1       51.3320   24.8590   61.3970 O.2   131  ASN131     -0.2716
    123  ND2       50.2470   26.8030   61.3200 N.am  131  ASN131     -0.0877
    124  N         51.1290   21.2500   54.5360 N.3   133  LEU133     -0.1245
    125  CA        51.7650   19.9500   54.3940 C.3   133  LEU133      0.1561
    126  C         51.7170   19.5550   52.9470 C.2   133  LEU133      0.2260
    127  O         50.8730   20.0290   52.2300 O.2   133  LEU133     -0.2867
    128  CB        51.0350   18.9210   55.2640 C.3   133  LEU133      0.0270
    129  CG        51.4350   18.6400   56.7290 C.3   133  LEU133      0.0019
    130  CD1       52.5800   19.4930   57.2030 C.3   133  LEU133      0.0001
    131  CD2       50.2610   18.7330   57.6950 C.3   133  LEU133      0.0001
    132  N         46.6490   22.7760   57.2130 N.3   143  ALA143     -0.1231
    133  CA        46.4450   21.9790   58.4280 C.3   143  ALA143      0.1694
    134  C         46.4890   22.8040   59.7230 C.2   143  ALA143      0.2592
    135  O         46.7020   24.0160   59.6830 O.2   143  ALA143     -0.2718
    136  CB        47.4840   20.8750   58.4630 C.3   143  ALA143      0.0304
    137  N         46.2670   22.1260   60.8560 N.am  144  ASP144     -0.1960
    138  CA        46.1490   22.7050   62.2080 C.3   144  ASP144      0.1840
    139  C         44.9950   23.6520   62.3860 C.2   144  ASP144      0.2622
    140  O         45.1200   24.8810   62.2250 O.2   144  ASP144     -0.2715
    141  CB        47.4090   23.3510   62.7290 C.3   144  ASP144      0.1450
    142  CG        47.3800   23.4870   64.2230 C.2   144  ASP144      0.3671
    143  OD1       46.2850   23.6840   64.7990 O.co2 144  ASP144     -0.2456
    144  OD2       48.3820   23.3450   64.9420 O.co2 144  ASP144     -0.2456
    145  N         43.8920   23.0770   62.8280 N.am  145  PHE145     -0.1974
    146  CA        42.6970   23.8510   63.1570 C.3   145  PHE145      0.1639
    147  C         42.5460   24.1260   64.6710 C.2   145  PHE145      0.2290
    148  O         41.4700   24.4870   65.1130 O.2   145  PHE145     -0.2864
    149  CB        41.4750   23.1450   62.5380 C.3   145  PHE145      0.0560
    150  CG        41.6440   22.8880   61.0650 C.ar  145  PHE145     -0.0200
    151  CD1       41.4720   23.9160   60.1360 C.ar  145  PHE145     -0.0042
    152  CD2       42.0160   21.6360   60.6150 C.ar  145  PHE145     -0.0042
    153  CE1       41.6590   23.6920   58.7700 C.ar  145  PHE145     -0.0003
    154  CE2       42.2150   21.3710   59.2460 C.ar  145  PHE145     -0.0003
    155  CZ        42.0370   22.4220   58.3190 C.ar  145  PHE145     -0.0000
@<TRIPOS>BOND
     1   127   126    2
     2    92    91    1
     3    72    71   ar
     4   126   125    1
     5    91    90    1
     6    73    71   ar
     7    71    70    1
     8    93    94    1
     9   100    99    2
    10    96    95    2
    11    87    86    1
    12    87    88    2
    13   125   124    1
    14   125   128    1
    15    77    76    2
    16    99    98    1
    17    86    89    1
    18    86    85    1
    19    89    90    1
    20    95    94    1
    21    95    97   am
    22    70    69    1
    23   128   129    1
    24    51    52    1
    25    69    66    1
    26    76    85   am
    27    76    75    1
    28    98    97    1
    29    98   101    1
    30    52    53    1
    31    52    55    1
    32    81    83   ar
    33    81    79   ar
    34    53    54    2
    35    83    84   ar
    36   129   130    1
    37   129   131    1
    38    74    75    1
    39    74    67   am
    40    55    57    1
    41    55    56    1
    42    66    67    1
    43    66    65    1
    44    75    78    1
    45   101   102    1
    46    67    68    2
    47   132   133    1
    48    78    79    1
    49   102   103    2
    50   102   104   am
    51   119   118    2
    52   118   117    1
    53    79    80   ar
    54    84    82   ar
    55   105   106    1
    56    65    60   am
    57   155   153   ar
    58   155   154   ar
    59    80    82   ar
    60   133   136    1
    61   133   134    1
    62   116   117    1
    63   116   107   am
    64   106   107    1
    65   106   109    1
    66   117   120    1
    67   153   151   ar
    68   107   108    2
    69    60    61    2
    70    60    59    1
    71   154   152   ar
    72   120   121    1
    73   135   134    2
    74   134   137   am
    75    46    45    2
    76   109   110    1
    77   151   150   ar
    78    62    59    1
    79    62    63    1
    80    62    64    1
    81    59    58    1
    82   152   150   ar
    83   110   111    1
    84   121   123   am
    85   121   122    2
    86    45    44    1
    87   137   138    1
    88    20    21    1
    89   150   149    1
    90   114   113    1
    91    44    47    1
    92    44    43    1
    93    24    21    1
    94    49    48    1
    95    49    50    1
    96     8     6    1
    97    47    48    1
    98   111   112    1
    99    21    22    1
   100   113   112    2
   101   113   115    1
   102   138   139    1
   103   138   141    1
   104   140   139    2
   105   139   145   am
   106     7     6    1
   107   149   146    1
   108   141   142    1
   109   145   146    1
   110    23    22    2
   111     6     5    1
   112   146   147    1
   113     5     2    1
   114   142   143   ar
   115   142   144   ar
   116     2     3    1
   117     2     1    1
   118     3     4    2
   119   147   148    2
   120    18    17    1
   121    37    36    2
   122    42    40   ar
   123    17    19    1
   124    17    14    1
   125    36    35    1
   126    39    40    1
   127    39    38    1
   128    25    26    1
   129    40    41   ar
   130    35    38    1
   131    35    34    1
   132    29    26    1
   133    29    30    1
   134    15    16    2
   135    15    14    1
   136    14    13    1
   137    31    30    1
   138    31    32    1
   139    26    27    1
   140    33    32    1
   141    27    28    2
   142    12    11    2
   143    11    10    1
   144    10     9    1
