@<TRIPOS>MOLECULE
tmp/2hz4C01.pdb
 101 101 0 0 0
SMALL
GASTEIGER

@<TRIPOS>ATOM
      1  N         51.1610    5.0790   -3.3120 N.3     1  LYS1       -0.1231
      2  CA        50.0270    4.5870   -4.1520 C.3     1  LYS1        0.1693
      3  C         49.5150    3.2160   -3.7000 C.2     1  LYS1        0.2592
      4  O         50.2630    2.3650   -3.2000 O.2     1  LYS1       -0.2718
      5  CB        50.3710    4.5750   -5.6450 C.3     1  LYS1        0.0285
      6  CG        50.5450    5.9700   -6.2080 C.3     1  LYS1        0.0035
      7  CD        50.9560    5.9500   -7.6820 C.3     1  LYS1        0.0206
      8  CE        51.5810    7.2830   -8.0930 C.3     1  LYS1        0.1093
      9  NZ        51.8710    7.3820   -9.5480 N.3     1  LYS1       -0.1314
     10  N         48.2240    3.0160   -3.9580 N.am    2  TRP2       -0.1962
     11  CA        47.3810    2.0350   -3.2680 C.3     2  TRP2        0.1771
     12  C         47.3220    0.7190   -4.0640 C.2     2  TRP2        0.2619
     13  O         46.5520   -0.2100   -3.7370 O.2     2  TRP2       -0.2715
     14  CB        45.9520    2.6170   -3.0920 C.3     2  TRP2        0.0590
     15  CG        45.8690    3.9900   -2.4380 C.ar    2  TRP2        0.0006
     16  CD1       46.3660    5.1930   -2.9120 C.ar    2  TRP2        0.0946
     17  CD2       45.2320    4.2930   -1.2090 C.ar    2  TRP2        0.0152
     18  NE1       46.0830    6.2110   -2.0350 N.ar    2  TRP2       -0.2442
     19  CE2       45.3890    5.6930   -0.9790 C.ar    2  TRP2        0.0810
     20  CE3       44.5470    3.5240   -0.2560 C.ar    2  TRP2        0.0012
     21  CZ2       44.8830    6.3280    0.1450 C.ar    2  TRP2        0.0191
     22  CZ3       44.0460    4.1530    0.8700 C.ar    2  TRP2        0.0001
     23  CH2       44.2060    5.5500    1.0600 C.ar    2  TRP2        0.0015
     24  N         48.1660    0.6290   -5.0860 N.am    3  GLU3       -0.1977
     25  CA        47.9900   -0.3260   -6.1420 C.3     3  GLU3        0.1602
     26  C         48.4900   -1.6180   -5.5850 C.2     3  GLU3        0.2287
     27  O         49.4390   -1.6090   -4.8230 O.2     3  GLU3       -0.2864
     28  CB        48.8170    0.0680   -7.3550 C.3     3  GLU3        0.0415
     29  CG        48.4940    1.4430   -7.9210 C.3     3  GLU3        0.1163
     30  CD        47.1870    1.5140   -8.6960 C.2     3  GLU3        0.3649
     31  OE1       46.8550    0.5700   -9.4570 O.co2   3  GLU3       -0.2457
     32  OE2       46.5090    2.5560   -8.5710 O.co2   3  GLU3       -0.2457
     33  N         41.9790  -11.3060    1.1720 N.3    23  TRP23      -0.1241
     34  CA        43.3630  -10.8830    0.9060 C.3    23  TRP23       0.1605
     35  C         44.2260  -11.9440    1.6120 C.2    23  TRP23       0.2264
     36  O         44.6490  -11.7590    2.7630 O.2    23  TRP23      -0.2867
     37  CB        43.6070   -9.4520    1.4240 C.3    23  TRP23       0.0550
     38  CG        44.8200   -8.7510    0.8590 C.ar   23  TRP23       0.0003
     39  CD1       46.0190   -9.3140    0.5080 C.ar   23  TRP23       0.0946
     40  CD2       44.9540   -7.3430    0.6090 C.ar   23  TRP23       0.0152
     41  NE1       46.8780   -8.3490    0.0380 N.ar   23  TRP23      -0.2442
     42  CE2       46.2570   -7.1280    0.0900 C.ar   23  TRP23       0.0810
     43  CE3       44.0950   -6.2300    0.7550 C.ar   23  TRP23       0.0012
     44  CZ2       46.7310   -5.8440   -0.2760 C.ar   23  TRP23       0.0191
     45  CZ3       44.5680   -4.9480    0.3850 C.ar   23  TRP23       0.0001
     46  CH2       45.8770   -4.7760   -0.1210 C.ar   23  TRP23       0.0015
     47  N         47.1240  -13.2110    2.0280 N.3    25  LYS25      -0.1231
     48  CA        48.2740  -12.7550    2.8660 C.3    25  LYS25       0.1693
     49  C         47.9500  -12.4440    4.3470 C.2    25  LYS25       0.2592
     50  O         48.7490  -12.7660    5.2260 O.2    25  LYS25      -0.2718
     51  CB        48.8630  -11.5030    2.1910 C.3    25  LYS25       0.0285
     52  CG        50.0440  -10.7580    2.8250 C.3    25  LYS25       0.0035
     53  CD        50.3050   -9.5450    1.9110 C.3    25  LYS25       0.0206
     54  CE        51.4380   -8.6500    2.3340 C.3    25  LYS25       0.1093
     55  NZ        51.4270   -7.4160    1.4780 N.3    25  LYS25      -0.1314
     56  N         46.8040  -11.8050    4.5990 N.am   26  TYR26      -0.1976
     57  CA        46.3830  -11.3950    5.9450 C.3    26  TYR26       0.1639
     58  C         45.2200  -12.2850    6.4060 C.2    26  TYR26       0.2290
     59  O         44.4180  -11.9200    7.2660 O.2    26  TYR26      -0.2864
     60  CB        45.9850   -9.9130    5.9420 C.3    26  TYR26       0.0560
     61  CG        46.9810   -8.9640    5.2770 C.ar   26  TYR26      -0.0198
     62  CD1       48.2790   -8.7900    5.7780 C.ar   26  TYR26      -0.0009
     63  CD2       46.6150   -8.2150    4.1550 C.ar   26  TYR26      -0.0009
     64  CE1       49.1960   -7.8860    5.1590 C.ar   26  TYR26       0.0417
     65  CE2       47.5240   -7.3220    3.5300 C.ar   26  TYR26       0.0417
     66  CZ        48.8040   -7.1540    4.0370 C.ar   26  TYR26       0.1957
     67  OH        49.6590   -6.2700    3.4080 O.3    26  TYR26      -0.2866
     68  N         39.0350    9.2390    5.6130 N.3    53  LYS53      -0.1245
     69  CA        39.4740    8.3680    6.7080 C.3    53  LYS53       0.1561
     70  C         38.5520    8.6360    7.8930 C.2    53  LYS53       0.2260
     71  O         38.5870    9.7340    8.4590 O.2    53  LYS53      -0.2867
     72  CB        40.9500    8.6630    7.0560 C.3    53  LYS53       0.0271
     73  CG        41.6640    7.5160    7.7160 C.3    53  LYS53       0.0035
     74  CD        43.0060    7.9220    8.3030 C.3    53  LYS53       0.0206
     75  CE        43.6560    6.7630    9.0840 C.3    53  LYS53       0.1093
     76  NZ        45.1230    6.9330    9.1920 N.3    53  LYS53      -0.1314
     77  N         36.2020    1.7930    4.7240 N.3    59  GLN59      -0.1231
     78  CA        37.5940    2.2470    4.3930 C.3    59  GLN59       0.1698
     79  C         38.2220    1.5750    3.1690 C.2    59  GLN59       0.2592
     80  O         38.2950    0.3520    3.1090 O.2    59  GLN59      -0.2718
     81  CB        38.5510    2.0120    5.5610 C.3    59  GLN59       0.0381
     82  CG        40.0120    2.4920    5.3610 C.3    59  GLN59       0.0905
     83  CD        40.1910    3.9840    5.5340 C.2    59  GLN59       0.2608
     84  OE1       39.7720    4.7730    4.6890 O.2    59  GLN59      -0.2717
     85  NE2       40.8280    4.3770    6.6400 N.am   59  GLN59      -0.0878
     86  N         38.7390    2.4030    2.2550 N.am   60  LEU60      -0.1966
     87  CA        39.4830    1.9550    1.0840 C.3    60  LEU60       0.1728
     88  C         40.8630    1.5330    1.5540 C.2    60  LEU60       0.2616
     89  O         41.5490    2.3170    2.2230 O.2    60  LEU60      -0.2715
     90  CB        39.6000    3.0790    0.0480 C.3    60  LEU60       0.0311
     91  CG        40.5290    2.9150   -1.1790 C.3    60  LEU60       0.0022
     92  CD1       39.8620    2.0410   -2.2110 C.3    60  LEU60       0.0001
     93  CD2       40.9990    4.2720   -1.7810 C.3    60  LEU60       0.0001
     94  N         41.2480    0.3040    1.1880 N.am   61  LEU61      -0.1977
     95  CA        42.5170   -0.3190    1.5960 C.3    61  LEU61       0.1596
     96  C         43.5130   -0.3010    0.4260 C.2    61  LEU61       0.2287
     97  O         44.6460    0.1560    0.5630 O.2    61  LEU61      -0.2864
     98  CB        42.2930   -1.7740    2.0740 C.3    61  LEU61       0.0297
     99  CG        41.3890   -2.0610    3.2880 C.3    61  LEU61       0.0022
    100  CD1       41.4540   -3.5490    3.6540 C.3    61  LEU61       0.0001
    101  CD2       41.7520   -1.2090    4.4950 C.3    61  LEU61       0.0001
@<TRIPOS>BOND
     1     9     8    1
     2    31    30   ar
     3    30    32   ar
     4    30    29    1
     5     8     7    1
     6    29    28    1
     7     7     6    1
     8    28    25    1
     9     6     5    1
    10    25    26    1
    11    25    24    1
    12     5     2    1
    13    26    27    2
    14    24    12   am
    15     2     3    1
    16     2     1    1
    17    12    13    2
    18    12    11    1
    19    10     3   am
    20    10    11    1
    21     3     4    2
    22    11    14    1
    23    14    15    1
    24    16    15   ar
    25    16    18   ar
    26    15    17   ar
    27    92    91    1
    28    18    19   ar
    29    93    91    1
    30    17    19   ar
    31    17    20   ar
    32    91    90    1
    33    19    21   ar
    34    44    46   ar
    35    44    42   ar
    36    20    22   ar
    37    46    45   ar
    38    41    42   ar
    39    41    39   ar
    40    90    87    1
    41    42    40   ar
    42    21    23   ar
    43    45    43   ar
    44    96    97    2
    45    96    95    1
    46    39    38   ar
    47    40    43   ar
    48    40    38   ar
    49    38    37    1
    50    22    23   ar
    51    34    33    1
    52    34    37    1
    53    34    35    1
    54    87    88    1
    55    87    86    1
    56    94    88   am
    57    94    95    1
    58    55    54    1
    59    88    89    2
    60    95    98    1
    61    35    36    2
    62    53    54    1
    63    53    52    1
    64    47    48    1
    65    98    99    1
    66    51    52    1
    67    51    48    1
    68    86    79   am
    69    48    49    1
    70    80    79    2
    71    79    78    1
    72    99   100    1
    73    99   101    1
    74    67    66    1
    75    65    66   ar
    76    65    63   ar
    77    66    64   ar
    78    63    61   ar
    79    49    56   am
    80    49    50    2
    81    78    77    1
    82    78    81    1
    83    56    57    1
    84    84    83    2
    85    64    62   ar
    86    61    62   ar
    87    61    60    1
    88    82    83    1
    89    82    81    1
    90    83    85   am
    91    68    69    1
    92    60    57    1
    93    57    58    1
    94    58    59    2
    95    69    72    1
    96    69    70    1
    97    72    73    1
    98    73    74    1
    99    70    71    2
   100    74    75    1
   101    75    76    1
