@<TRIPOS>MOLECULE
tmp/2hznA00.pdb
 191 179 0 0 0
SMALL
GASTEIGER

@<TRIPOS>ATOM
      1  N         52.1330   12.7080   45.2530 N.3    24  LEU24      -0.1245
      2  CA        52.9410   13.2170   44.1580 C.3    24  LEU24       0.1561
      3  C         53.9110   14.0410   44.9790 C.2    24  LEU24       0.2260
      4  O         53.6130   15.1850   45.3020 O.2    24  LEU24      -0.2867
      5  CB        52.1490   14.1540   43.2380 C.3    24  LEU24       0.0270
      6  CG        51.1130   13.5030   42.3330 C.3    24  LEU24       0.0019
      7  CD1       50.2690   14.5710   41.6560 C.3    24  LEU24       0.0001
      8  CD2       51.7520   12.5780   41.3010 C.3    24  LEU24       0.0001
      9  N         50.1380   17.1310   48.0910 N.3    29  VAL29      -0.1245
     10  CA        49.3010   16.8280   46.9310 C.3    29  VAL29       0.1561
     11  C         49.3980   15.3370   46.5890 C.2    29  VAL29       0.2260
     12  O         50.4830   14.8260   46.3130 O.2    29  VAL29      -0.2867
     13  CB        49.7780   17.5950   45.6700 C.3    29  VAL29       0.0252
     14  CG1       49.0600   17.0990   44.4500 C.3    29  VAL29       0.0019
     15  CG2       49.6000   19.0870   45.8380 C.3    29  VAL29       0.0019
     16  N         44.7720   16.1650   40.4140 N.3    42  ALA42      -0.1245
     17  CA        45.6720   16.5890   41.4760 C.3    42  ALA42       0.1562
     18  C         44.8520   17.0320   42.6720 C.2    42  ALA42       0.2260
     19  O         43.9440   17.8450   42.5430 O.2    42  ALA42      -0.2867
     20  CB        46.5650   17.7170   40.9920 C.3    42  ALA42       0.0290
     21  N         45.1830   18.6250   46.3910 N.3    44  LYS44      -0.1245
     22  CA        46.0040   19.3160   47.3760 C.3    44  LYS44       0.1561
     23  C         45.2540   19.2700   48.6910 C.2    44  LYS44       0.2260
     24  O         44.0570   19.5580   48.7320 O.2    44  LYS44      -0.2867
     25  CB        46.2070   20.7650   46.9600 C.3    44  LYS44       0.0271
     26  CG        46.9850   21.5770   47.9570 C.3    44  LYS44       0.0035
     27  CD        47.9610   22.4820   47.2530 C.3    44  LYS44       0.0206
     28  CE        48.4210   23.6020   48.1620 C.3    44  LYS44       0.1093
     29  NZ        48.8340   24.8130   47.3830 N.3    44  LYS44      -0.1314
     30  N         43.4200   30.3900   49.2580 N.3    57  GLU57      -0.1245
     31  CA        43.8940   29.8400   48.0070 C.3    57  GLU57       0.1567
     32  C         42.6890   29.2920   47.2410 C.2    57  GLU57       0.2260
     33  O         42.5150   29.5730   46.0470 O.2    57  GLU57      -0.2867
     34  CB        44.8920   28.7110   48.2780 C.3    57  GLU57       0.0388
     35  CG        45.8950   28.4820   47.1460 C.3    57  GLU57       0.1160
     36  CD        46.5990   27.1480   47.2570 C.2    57  GLU57       0.3649
     37  OE1       46.1360   26.3140   48.0560 O.co2  57  GLU57      -0.2457
     38  OE2       47.6210   26.9350   46.5710 O.co2  57  GLU57      -0.2457
     39  N         40.6380   32.1640   45.8400 N.3    60  VAL60      -0.1231
     40  CA        41.3170   32.7480   44.6910 C.3    60  VAL60       0.1692
     41  C         41.1110   31.9090   43.4320 C.2    60  VAL60       0.2591
     42  O         40.7030   32.3960   42.3800 O.2    60  VAL60      -0.2718
     43  CB        42.8120   32.7020   44.9090 C.3    60  VAL60       0.0266
     44  CG1       43.5110   32.7300   43.5610 C.3    60  VAL60       0.0020
     45  CG2       43.2570   33.8370   45.7860 C.3    60  VAL60       0.0020
     46  N         41.4940   30.6480   43.5340 N.am   61  MET61      -0.1979
     47  CA        41.3880   29.7210   42.4190 C.3    61  MET61       0.1605
     48  C         40.0380   29.7680   41.7630 C.2    61  MET61       0.2287
     49  O         39.8960   29.4480   40.5730 O.2    61  MET61      -0.2864
     50  CB        41.6660   28.2940   42.8870 C.3    61  MET61       0.0413
     51  CG        42.9840   28.1660   43.6510 C.3    61  MET61       0.0598
     52  SD        44.1500   26.9390   43.0100 S.3    61  MET61      -0.1393
     53  CE        43.6310   25.4260   43.8380 C.3    61  MET61       0.0692
     54  N         40.0430   32.7270   39.1370 N.3    64  ILE64      -0.1245
     55  CA        40.8980   32.6950   37.9490 C.3    64  ILE64       0.1561
     56  C         40.6560   31.5890   36.9250 C.2    64  ILE64       0.2260
     57  O         40.4390   30.4210   37.2700 O.2    64  ILE64      -0.2867
     58  CB        42.3890   32.8150   38.2850 C.3    64  ILE64       0.0252
     59  CG1       42.7870   31.8750   39.4090 C.3    64  ILE64       0.0019
     60  CG2       42.7470   34.2540   38.6420 C.3    64  ILE64       0.0019
     61  CD1       44.1750   32.1850   39.9640 C.3    64  ILE64       0.0001
     62  N         46.9450   28.5380   33.0310 N.3    69  LEU69      -0.1231
     63  CA        46.9850   28.5750   34.5130 C.3    69  LEU69       0.1693
     64  C         46.3830   27.2620   34.9650 C.2    69  LEU69       0.2591
     65  O         45.4020   26.8440   34.3890 O.2    69  LEU69      -0.2718
     66  CB        46.1240   29.7160   35.0700 C.3    69  LEU69       0.0284
     67  CG        46.5830   31.1840   35.0850 C.3    69  LEU69       0.0019
     68  CD1       45.4590   32.0290   35.7020 C.3    69  LEU69       0.0001
     69  CD2       47.8530   31.3480   35.8760 C.3    69  LEU69       0.0001
     70  N         46.9610   26.5860   35.9560 N.am   70  VAL70      -0.1980
     71  CA        46.4070   25.3040   36.3660 C.3    70  VAL70       0.1595
     72  C         44.9340   25.4470   36.7120 C.2    70  VAL70       0.2287
     73  O         44.5480   26.4080   37.3650 O.2    70  VAL70      -0.2864
     74  CB        47.2010   24.6190   37.5290 C.3    70  VAL70       0.0276
     75  CG1       47.4650   25.5800   38.6880 C.3    70  VAL70       0.0022
     76  CG2       46.4550   23.3720   38.0130 C.3    70  VAL70       0.0022
     77  N         41.3470   20.2240   47.5260 N.3    84  ILE84      -0.1245
     78  CA        41.4920   21.2220   46.4550 C.3    84  ILE84       0.1561
     79  C         41.8270   20.4450   45.1920 C.2    84  ILE84       0.2260
     80  O         42.9820   20.0410   45.0010 O.2    84  ILE84      -0.2867
     81  CB        42.6820   22.1960   46.6920 C.3    84  ILE84       0.0252
     82  CG1       42.2650   23.4020   47.5290 C.3    84  ILE84       0.0019
     83  CG2       43.2140   22.7480   45.3560 C.3    84  ILE84       0.0019
     84  CD1       43.3260   24.5080   47.6100 C.3    84  ILE84       0.0001
     85  N         42.4010   19.9950   41.2050 N.3    86  THR86      -0.1203
     86  CA        42.7810   20.5800   39.9280 C.3    86  THR86       0.1994
     87  C         43.1620   19.4730   38.9570 C.2    86  THR86       0.2618
     88  O         43.5550   18.3770   39.3670 O.2    86  THR86      -0.2717
     89  CB        44.0200   21.4340   40.0840 C.3    86  THR86       0.1784
     90  OG1       45.1730   20.6010   39.9040 O.3    86  THR86      -0.2211
     91  CG2       44.0550   22.0770   41.4630 C.3    86  THR86       0.0376
     92  N         43.1140   19.7900   37.6710 N.am   87  GLU87      -0.1965
     93  CA        43.4830   18.8420   36.6320 C.3    87  GLU87       0.1733
     94  C         44.8690   18.3700   36.9240 C.2    87  GLU87       0.2616
     95  O         45.6230   19.0910   37.5790 O.2    87  GLU87      -0.2715
     96  CB        43.5300   19.5550   35.2930 C.3    87  GLU87       0.0429
     97  CG        44.3730   20.8000   35.3200 C.3    87  GLU87       0.1163
     98  CD        44.3610   21.5010   33.9900 C.2    87  GLU87       0.3649
     99  OE1       44.8100   22.6550   33.9290 O.co2  87  GLU87      -0.2457
    100  OE2       43.8480   20.9140   33.0110 O.co2  87  GLU87      -0.2457
    101  N         45.2100   17.1910   36.3980 N.am   88  PHE88      -0.1960
    102  CA        46.5520   16.6350   36.5360 C.3    88  PHE88       0.1771
    103  C         47.3580   17.0470   35.3130 C.2    88  PHE88       0.2619
    104  O         46.8030   17.2810   34.2370 O.2    88  PHE88      -0.2715
    105  CB        46.5220   15.1050   36.6660 C.3    88  PHE88       0.0574
    106  CG        47.8420   14.5150   37.0890 C.ar   88  PHE88      -0.0200
    107  CD1       48.2990   14.6660   38.3790 C.ar   88  PHE88      -0.0042
    108  CD2       48.6540   13.8660   36.1820 C.ar   88  PHE88      -0.0042
    109  CE1       49.5380   14.1550   38.7630 C.ar   88  PHE88      -0.0003
    110  CE2       49.8910   13.3580   36.5580 C.ar   88  PHE88      -0.0003
    111  CZ        50.3360   13.5200   37.8430 C.ar   88  PHE88      -0.0000
    112  N         48.6660   17.1750   35.5020 N.am   89  MET89      -0.1977
    113  CA        49.5720   17.5710   34.4450 C.3    89  MET89       0.1605
    114  C         50.6350   16.4940   34.3760 C.2    89  MET89       0.2287
    115  O         51.6690   16.5640   35.0630 O.2    89  MET89      -0.2864
    116  CB        50.1910   18.9300   34.7700 C.3    89  MET89       0.0413
    117  CG        49.1810   20.0720   34.8300 C.3    89  MET89       0.0598
    118  SD        48.4310   20.5130   33.2340 S.3    89  MET89      -0.1393
    119  CE        49.6930   21.4700   32.4890 C.3    89  MET89       0.0692
    120  N         54.3960   16.6750   35.1870 N.3    92  GLY92      -0.1225
    121  CA        54.9080   17.1940   36.4390 C.3    92  GLY92       0.1811
    122  C         55.3330   18.6300   36.2920 C.2    92  GLY92       0.2280
    123  O         54.7150   19.3840   35.5760 O.2    92  GLY92      -0.2866
    124  N         46.8260   37.4110   34.5990 N.3   125  LEU125     -0.1245
    125  CA        46.9760   37.7260   36.0300 C.3   125  LEU125      0.1561
    126  C         47.2790   39.1900   36.2740 C.2   125  LEU125      0.2260
    127  O         46.8990   39.7550   37.2880 O.2   125  LEU125     -0.2867
    128  CB        48.0910   36.9080   36.6610 C.3   125  LEU125      0.0270
    129  CG        47.9410   35.4100   36.9650 C.3   125  LEU125      0.0019
    130  CD1       49.1560   34.8980   37.7320 C.3   125  LEU125      0.0001
    131  CD2       46.6350   35.0460   37.6660 C.3   125  LEU125      0.0001
    132  N         46.3500   40.5360   39.8310 N.3   130  PHE130     -0.1241
    133  CA        46.7150   39.5100   40.8090 C.3   130  PHE130      0.1605
    134  C         48.2250   39.2910   40.8370 C.2   130  PHE130      0.2264
    135  O         48.8520   39.2350   39.7940 O.2   130  PHE130     -0.2867
    136  CB        45.9840   38.2170   40.4930 C.3   130  PHE130      0.0534
    137  CG        46.3850   37.0730   41.3580 C.ar  130  PHE130     -0.0203
    138  CD1       45.5390   36.6120   42.3550 C.ar  130  PHE130     -0.0042
    139  CD2       47.5830   36.4080   41.1390 C.ar  130  PHE130     -0.0042
    140  CE1       45.9000   35.5300   43.1440 C.ar  130  PHE130     -0.0003
    141  CE2       47.9480   35.3110   41.9230 C.ar  130  PHE130     -0.0003
    142  CZ        47.1120   34.8820   42.9320 C.ar  130  PHE130     -0.0000
    143  N         51.4930   37.0630   41.6720 N.3   132  HIS132     -0.1241
    144  CA        51.8660   35.6690   41.8860 C.3   132  HIS132      0.1621
    145  C         52.6840   35.4420   43.1400 C.2   132  HIS132      0.2264
    146  O         52.3810   34.5550   43.9350 O.2   132  HIS132     -0.2867
    147  CB        52.5650   35.0360   40.6480 C.3   132  HIS132      0.0745
    148  CG        52.6770   33.5460   40.7370 C.ar  132  HIS132      0.0817
    149  ND1       53.6380   32.9290   41.5080 N.ar  132  HIS132     -0.2268
    150  CD2       51.8530   32.5600   40.3120 C.ar  132  HIS132      0.1154
    151  CE1       53.4520   31.6220   41.4820 C.ar  132  HIS132      0.1986
    152  NE2       52.3630   31.3740   40.7820 N.ar  132  HIS132     -0.2212
    153  N         53.7790   23.7650   35.4680 N.3   141  LEU141     -0.1245
    154  CA        53.4900   22.3620   35.1520 C.3   141  LEU141      0.1561
    155  C         53.4500   22.0420   33.6450 C.2   141  LEU141      0.2260
    156  O         53.0070   22.8620   32.8360 O.2   141  LEU141     -0.2867
    157  CB        52.1680   21.9120   35.8090 C.3   141  LEU141      0.0270
    158  CG        52.0480   22.0910   37.3310 C.3   141  LEU141      0.0019
    159  CD1       50.8270   21.4190   37.9490 C.3   141  LEU141      0.0001
    160  CD2       53.3140   21.6550   38.0400 C.3   141  LEU141      0.0001
    161  N         51.0810   27.8500   34.4610 N.3   150  VAL150     -0.1231
    162  CA        51.6210   28.4650   35.6860 C.3   150  VAL150      0.1692
    163  C         50.7900   28.0040   36.9010 C.2   150  VAL150      0.2592
    164  O         49.5730   27.9520   36.8430 O.2   150  VAL150     -0.2718
    165  CB        51.4840   30.0160   35.6170 C.3   150  VAL150      0.0266
    166  CG1       51.8820   30.6730   36.9310 C.3   150  VAL150      0.0020
    167  CG2       52.2800   30.5800   34.4560 C.3   150  VAL150      0.0020
    168  N         51.4540   27.7140   38.0090 N.am  151  ALA151     -0.1966
    169  CA        50.7930   27.2210   39.2200 C.3   151  ALA151      0.1728
    170  C         51.3930   27.8470   40.4880 C.2   151  ALA151      0.2616
    171  O         52.1020   28.8510   40.4370 O.2   151  ALA151     -0.2715
    172  CB        50.9150   25.6880   39.2950 C.3   151  ALA151      0.0334
    173  N         51.0920   27.2500   41.6360 N.am  152  ASP152     -0.1957
    174  CA        51.6870   27.6670   42.9050 C.3   152  ASP152      0.1840
    175  C         51.6220   26.4740   43.8260 C.2   152  ASP152      0.2622
    176  O         50.5700   25.8650   43.9840 O.2   152  ASP152     -0.2715
    177  CB        50.9790   28.8750   43.5310 C.3   152  ASP152      0.1450
    178  CG        51.8570   29.6020   44.5300 C.2   152  ASP152      0.3671
    179  OD1       52.7260   28.9270   45.0960 O.co2 152  ASP152     -0.2456
    180  OD2       51.7310   30.8370   44.7060 O.co2 152  ASP152     -0.2456
    181  N         52.7620   26.0690   44.3560 N.am  153  PHE153     -0.1974
    182  CA        52.7660   24.8940   45.2020 C.3   153  PHE153      0.1639
    183  C         52.7370   25.2690   46.6850 C.2   153  PHE153      0.2290
    184  O         52.2220   24.5170   47.5220 O.2   153  PHE153     -0.2864
    185  CB        54.0140   24.0460   44.9160 C.3   153  PHE153      0.0560
    186  CG        53.8440   23.0450   43.7960 C.ar  153  PHE153     -0.0200
    187  CD1       54.2240   23.3670   42.5040 C.ar  153  PHE153     -0.0042
    188  CD2       53.4110   21.7560   44.0550 C.ar  153  PHE153     -0.0042
    189  CE1       54.1100   22.4460   41.4880 C.ar  153  PHE153     -0.0003
    190  CE2       53.2830   20.8310   43.0330 C.ar  153  PHE153     -0.0003
    191  CZ        53.6490   21.1790   41.7520 C.ar  153  PHE153     -0.0000
@<TRIPOS>BOND
     1   119   118    1
     2   156   155    2
     3   100    98   ar
     4    62    63    1
     5   118   117    1
     6   155   154    1
     7    99    98   ar
     8    98    97    1
     9   104   103    2
    10   114   113    1
    11   114   115    2
    12    65    64    2
    13   113   116    1
    14   113   112    1
    15   167   165    1
    16   161   162    1
    17    63    64    1
    18    63    66    1
    19   124   125    1
    20   116   117    1
    21    64    70   am
    22    66    67    1
    23    67    68    1
    24    67    69    1
    25   154   153    1
    26   154   157    1
    27   120   121    1
    28    96    97    1
    29    96    93    1
    30   103   112   am
    31   103   102    1
    32   123   122    2
    33   165   162    1
    34   165   166    1
    35   162   163    1
    36   157   158    1
    37    70    71    1
    38   125   126    1
    39   125   128    1
    40   108   110   ar
    41   108   106   ar
    42   126   127    2
    43   122   121    1
    44    71    72    1
    45    71    74    1
    46   101   102    1
    47   101    94   am
    48   102   105    1
    49   110   111   ar
    50    93    94    1
    51    93    92    1
    52   128   129    1
    53   105   106    1
    54    72    73    2
    55   164   163    2
    56   163   168   am
    57    94    95    2
    58    56    57    2
    59    56    55    1
    60   129   131    1
    61   129   130    1
    62   106   107   ar
    63   158   159    1
    64   158   160    1
    65    74    76    1
    66    74    75    1
    67    92    87   am
    68   111   109   ar
    69    55    58    1
    70    55    54    1
    71   168   169    1
    72    58    60    1
    73    58    59    1
    74   107   109   ar
    75    87    88    2
    76    87    86    1
    77   169   172    1
    78   169   170    1
    79    59    61    1
    80   135   134    2
    81   132   133    1
    82    90    89    1
    83    86    89    1
    84    86    85    1
    85    89    91    1
    86   150   148   ar
    87   150   152   ar
    88    16    17    1
    89   171   170    2
    90   170   173   am
    91   136   133    1
    92   136   137    1
    93    49    48    2
    94   147   148    1
    95   147   144    1
    96   148   149   ar
    97   152   151   ar
    98   133   134    1
    99    20    17    1
   100   139   137   ar
   101   139   141   ar
   102     8     6    1
   103   137   138   ar
   104    17    18    1
   105   151   149   ar
   106   189   191   ar
   107   189   187   ar
   108   173   174    1
   109     7     6    1
   110   143   144    1
   111   191   190   ar
   112    48    47    1
   113   144   145    1
   114   141   142   ar
   115     6     5    1
   116   138   140   ar
   117    42    41    2
   118    47    50    1
   119    47    46    1
   120   187   186   ar
   121    19    18    2
   122    50    51    1
   123   174   177    1
   124   174   175    1
   125   142   140   ar
   126    52    51    1
   127    52    53    1
   128   190   188   ar
   129   145   146    2
   130     5     2    1
   131    41    46   am
   132    41    40    1
   133   177   178    1
   134    44    43    1
   135   186   188   ar
   136   186   185    1
   137   175   176    2
   138   175   181   am
   139     2     3    1
   140     2     1    1
   141   181   182    1
   142    14    13    1
   143   178   180   ar
   144   178   179   ar
   145    40    43    1
   146    40    39    1
   147    43    45    1
   148   185   182    1
   149     3     4    2
   150    80    79    2
   151    79    78    1
   152   182   183    1
   153    83    81    1
   154    13    15    1
   155    13    10    1
   156    33    32    2
   157    12    11    2
   158    21    22    1
   159    78    81    1
   160    78    77    1
   161    38    36   ar
   162    11    10    1
   163   183   184    2
   164    81    82    1
   165    10     9    1
   166    25    22    1
   167    25    26    1
   168    35    36    1
   169    35    34    1
   170    32    31    1
   171    27    26    1
   172    27    28    1
   173    36    37   ar
   174    22    23    1
   175    29    28    1
   176    82    84    1
   177    31    34    1
   178    31    30    1
   179    23    24    2
