@<TRIPOS>MOLECULE
tmp/2hzpA00.pdb
 119 113 0 0 0
SMALL
GASTEIGER

@<TRIPOS>ATOM
      1  N         39.5300   34.3410    3.2310 N.3   130  ALA130     -0.1231
      2  CA        39.3150   34.6200    4.6450 C.3   130  ALA130      0.1694
      3  C         40.0150   33.5310    5.4580 C.2   130  ALA130      0.2592
      4  O         40.3740   32.4750    4.9240 O.2   130  ALA130     -0.2718
      5  CB        37.8230   34.6760    4.9660 C.3   130  ALA130      0.0304
      6  N         40.2570   33.8070    6.7360 N.am  131  LEU131     -0.1966
      7  CA        41.0870   32.9210    7.5620 C.3   131  LEU131      0.1728
      8  C         40.6020   31.4610    7.5500 C.2   131  LEU131      0.2616
      9  O         41.3560   30.5470    7.1790 O.2   131  LEU131     -0.2715
     10  CB        41.1840   33.4670    8.9990 C.3   131  LEU131      0.0311
     11  CG        41.7250   32.5600   10.1070 C.3   131  LEU131      0.0022
     12  CD1       43.0550   31.9740    9.7190 C.3   131  LEU131      0.0001
     13  CD2       41.8720   33.3490   11.3730 C.3   131  LEU131      0.0001
     14  N         39.3560   31.2340    7.9590 N.am  132  THR132     -0.1951
     15  CA        38.8740   29.8540    8.1110 C.3   132  THR132      0.1897
     16  C         38.7590   29.1620    6.7550 C.2   132  THR132      0.2313
     17  O         38.9930   27.9510    6.6420 O.2   132  THR132     -0.2863
     18  CB        37.5540   29.7690    8.8950 C.3   132  THR132      0.1794
     19  OG1       37.6930   30.4820   10.1370 O.3   132  THR132     -0.2208
     20  CG2       37.2170   28.3060    9.1990 C.3   132  THR132      0.0378
     21  N         39.4330   28.3180   19.2870 N.3   159  PHE159     -0.1241
     22  CA        38.4760   29.2480   18.6990 C.3   159  PHE159      0.1605
     23  C         37.4080   28.4670   17.9190 C.2   159  PHE159      0.2264
     24  O         37.7480   27.5260   17.1990 O.2   159  PHE159     -0.2867
     25  CB        39.1810   30.2440   17.7780 C.3   159  PHE159      0.0534
     26  CG        38.3240   31.4090   17.4070 C.ar  159  PHE159     -0.0203
     27  CD1       38.2150   32.5010   18.2620 C.ar  159  PHE159     -0.0042
     28  CD2       37.5800   31.3970   16.2300 C.ar  159  PHE159     -0.0042
     29  CE1       37.4010   33.5820   17.9390 C.ar  159  PHE159     -0.0003
     30  CE2       36.7580   32.4690   15.8980 C.ar  159  PHE159     -0.0003
     31  CZ        36.6710   33.5680   16.7510 C.ar  159  PHE159     -0.0000
     32  N         35.6370   28.7090   15.2520 N.3   161  SER161     -0.1202
     33  CA        35.7300   28.5120   13.8120 C.3   161  SER161      0.2020
     34  C         36.6750   27.3580   13.4770 C.2   161  SER161      0.2618
     35  O         36.3470   26.5040   12.6380 O.2   161  SER161     -0.2717
     36  CB        36.1670   29.7890   13.0960 C.3   161  SER161      0.2103
     37  OG        35.7570   29.7350   11.7440 O.3   161  SER161     -0.2182
     38  N         37.8320   27.3350   14.1480 N.am  162  ASP162     -0.1973
     39  CA        38.8270   26.2810   13.9580 C.3   162  ASP162      0.1709
     40  C         38.2890   24.9430   14.4180 C.2   162  ASP162      0.2293
     41  O         38.5200   23.9250   13.7630 O.2   162  ASP162     -0.2864
     42  CB        40.1200   26.5910   14.7250 C.3   162  ASP162      0.1436
     43  CG        40.7810   27.8660   14.2520 C.2   162  ASP162      0.3671
     44  OD1       41.9320   27.7970   13.7830 O.co2 162  ASP162     -0.2456
     45  OD2       40.1380   28.9290   14.3480 O.co2 162  ASP162     -0.2456
     46  N         46.6940   27.0370   17.7090 N.3   215  SER215     -0.1217
     47  CA        46.7840   28.4820   17.6010 C.3   215  SER215      0.1889
     48  C         48.2080   28.8970   17.9810 C.2   215  SER215      0.2288
     49  O         48.8930   28.1730   18.7080 O.2   215  SER215     -0.2866
     50  CB        45.7380   29.1820   18.4820 C.3   215  SER215      0.2089
     51  OG        45.7810   28.7200   19.8200 O.3   215  SER215     -0.2183
     52  N         48.7410   32.0010   19.3830 N.3   217  VAL217     -0.1245
     53  CA        48.3630   32.6030   20.6490 C.3   217  VAL217      0.1561
     54  C         46.9090   32.2030   20.9030 C.2   217  VAL217      0.2260
     55  O         46.0350   32.4170   20.0470 O.2   217  VAL217     -0.2867
     56  CB        48.5230   34.1470   20.6100 C.3   217  VAL217      0.0252
     57  CG1       47.8790   34.8110   21.8290 C.3   217  VAL217      0.0019
     58  CG2       50.0070   34.5430   20.4880 C.3   217  VAL217      0.0019
     59  N         43.3030   32.5340   22.0320 N.3   219  PHE219     -0.1241
     60  CA        42.4630   33.7400   22.0930 C.3   219  PHE219      0.1605
     61  C         41.9260   34.0350   23.4870 C.2   219  PHE219      0.2264
     62  O         41.7200   35.1980   23.8430 O.2   219  PHE219     -0.2867
     63  CB        41.2960   33.6630   21.0870 C.3   219  PHE219      0.0534
     64  CG        40.1410   32.8080   21.5450 C.ar  219  PHE219     -0.0203
     65  CD1       38.9370   33.3950   21.9310 C.ar  219  PHE219     -0.0042
     66  CD2       40.2570   31.4210   21.6010 C.ar  219  PHE219     -0.0042
     67  CE1       37.8600   32.6130   22.3580 C.ar  219  PHE219     -0.0003
     68  CE2       39.1850   30.6290   22.0350 C.ar  219  PHE219     -0.0003
     69  CZ        37.9860   31.2280   22.4110 C.ar  219  PHE219     -0.0000
     70  N         47.0790   28.2670   13.3280 N.3   244  ASP244     -0.1239
     71  CA        46.2460   29.4260   13.1020 C.3   244  ASP244      0.1674
     72  C         46.8990   30.5790   13.8560 C.2   244  ASP244      0.2266
     73  O         46.9450   30.5860   15.0920 O.2   244  ASP244     -0.2867
     74  CB        44.8080   29.1910   13.5690 C.3   244  ASP244      0.1410
     75  CG        43.8990   30.3760   13.2780 C.2   244  ASP244      0.3668
     76  OD1       44.3950   31.5150   13.2770 O.co2 244  ASP244     -0.2456
     77  OD2       42.6810   30.1790   13.0570 O.co2 244  ASP244     -0.2456
     78  N         46.0350   33.8050   13.9220 N.3   246  ALA246     -0.1231
     79  CA        45.1430   34.9720   13.9980 C.3   246  ALA246      0.1694
     80  C         45.5490   35.9720   15.0800 C.2   246  ALA246      0.2592
     81  O         45.4970   37.1890   14.8610 O.2   246  ALA246     -0.2718
     82  CB        43.6970   34.5350   14.2070 C.3   246  ALA246      0.0304
     83  N         45.9330   35.4600   16.2490 N.am  247  HIS247     -0.1976
     84  CA        46.3180   36.3270   17.3670 C.3   247  HIS247      0.1656
     85  C         47.8350   36.4630   17.5290 C.2   247  HIS247      0.2291
     86  O         48.2990   37.0950   18.4910 O.2   247  HIS247     -0.2864
     87  CB        45.6800   35.8590   18.6790 C.3   247  HIS247      0.0771
     88  CG        44.2600   36.3040   18.8430 C.ar  247  HIS247      0.0820
     89  ND1       43.1870   35.5170   18.4880 N.ar  247  HIS247     -0.2267
     90  CD2       43.7390   37.4670   19.3010 C.ar  247  HIS247      0.1154
     91  CE1       42.0650   36.1710   18.7320 C.ar  247  HIS247      0.1986
     92  NE2       42.3720   37.3570   19.2210 N.ar  247  HIS247     -0.2212
     93  N         44.2940   36.0080    9.8870 N.3   267  CYS267     -0.1235
     94  CA        43.3900   37.0400    9.4330 C.3   267  CYS267      0.1677
     95  C         44.1510   38.3630    9.4470 C.2   267  CYS267      0.2270
     96  O         45.2800   38.4220    9.9490 O.2   267  CYS267     -0.2867
     97  CB        42.1600   37.1150   10.3490 C.3   267  CYS267      0.0956
     98  SG        42.5920   37.3940   12.0780 S.3   267  CYS267     -0.0801
     99  N         42.4210   41.5990   10.1540 N.3   269  TYR269     -0.1227
    100  CA        41.6350   42.6610   10.7820 C.3   269  TYR269      0.1736
    101  C         41.8590   42.7920   12.2860 C.2   269  TYR269      0.2595
    102  O         41.2120   43.5950   12.9460 O.2   269  TYR269     -0.2718
    103  CB        40.1420   42.4760   10.4820 C.3   269  TYR269      0.0548
    104  CG        39.6270   41.1110   10.8590 C.ar  269  TYR269     -0.0200
    105  CD1       39.2350   40.8280   12.1730 C.ar  269  TYR269     -0.0009
    106  CD2       39.5390   40.1000    9.9100 C.ar  269  TYR269     -0.0009
    107  CE1       38.7640   39.5700   12.5280 C.ar  269  TYR269      0.0417
    108  CE2       39.0640   38.8400   10.2510 C.ar  269  TYR269      0.0417
    109  CZ        38.6850   38.5830   11.5600 C.ar  269  TYR269      0.1957
    110  OH        38.2190   37.3400   11.8920 O.3   269  TYR269     -0.2866
    111  N         42.7690   41.9920   12.8230 N.am  270  LYS270     -0.1980
    112  CA        43.1060   42.0910   14.2320 C.3   270  LYS270      0.1596
    113  C         44.3090   43.0090   14.4300 C.2   270  LYS270      0.2287
    114  O         44.1820   44.2250   14.2770 O.2   270  LYS270     -0.2864
    115  CB        43.3130   40.6940   14.8180 C.3   270  LYS270      0.0298
    116  CG        42.0020   39.9380   14.8530 C.3   270  LYS270      0.0038
    117  CD        42.1610   38.5330   15.3230 C.3   270  LYS270      0.0206
    118  CE        40.8000   38.0050   15.6110 C.3   270  LYS270      0.1093
    119  NZ        40.7450   36.6270   15.1500 N.3   270  LYS270     -0.1314
@<TRIPOS>BOND
     1     1     2    1
     2     2     5    1
     3     2     3    1
     4     4     3    2
     5     3     6   am
     6    17    16    2
     7     6     7    1
     8    16    15    1
     9     9     8    2
    10     8     7    1
    11     8    14   am
    12     7    10    1
    13    14    15    1
    14    15    18    1
    15    18    20    1
    16    18    19    1
    17    10    11    1
    18    94    95    1
    19    94    93    1
    20    94    97    1
    21    95    96    2
    22    12    11    1
    23   106   108   ar
    24   106   104   ar
    25    11    13    1
    26    99   100    1
    27   108   109   ar
    28    97    98    1
    29   103   100    1
    30   103   104    1
    31   100   101    1
    32   104   105   ar
    33   109   110    1
    34   109   107   ar
    35    37    36    1
    36   105   107   ar
    37   101   111   am
    38   101   102    2
    39    35    34    2
    40   111   112    1
    41    77    75   ar
    42    36    33    1
    43    71    70    1
    44    71    74    1
    45    71    72    1
    46    76    75   ar
    47    75    74    1
    48    34    33    1
    49    34    38   am
    50    41    40    2
    51    44    43   ar
    52    33    32    1
    53    72    73    2
    54    78    79    1
    55    39    38    1
    56    39    40    1
    57    39    42    1
    58    79    82    1
    59    79    80    1
    60   112   113    1
    61   112   115    1
    62    43    45   ar
    63    43    42    1
    64   114   113    2
    65   115   116    1
    66   116   117    1
    67    81    80    2
    68    80    83   am
    69   119   118    1
    70   117   118    1
    71    30    28   ar
    72    30    31   ar
    73    28    26   ar
    74    83    84    1
    75    31    29   ar
    76    24    23    2
    77    84    85    1
    78    84    87    1
    79    26    25    1
    80    26    27   ar
    81    85    86    2
    82    47    46    1
    83    47    48    1
    84    47    50    1
    85    25    22    1
    86    23    22    1
    87    29    27   ar
    88    48    49    2
    89    50    51    1
    90    89    91   ar
    91    89    88   ar
    92    87    88    1
    93    22    21    1
    94    91    92   ar
    95    88    90   ar
    96    92    90   ar
    97    52    53    1
    98    55    54    2
    99    58    56    1
   100    56    53    1
   101    56    57    1
   102    53    54    1
   103    63    64    1
   104    63    60    1
   105    64    66   ar
   106    64    65   ar
   107    66    68   ar
   108    65    67   ar
   109    59    60    1
   110    68    69   ar
   111    60    61    1
   112    67    69   ar
   113    61    62    2
