@<TRIPOS>MOLECULE
tmp/2hzqA00.pdb
 151 143 0 0 0
SMALL
GASTEIGER

@<TRIPOS>ATOM
      1  N          1.4870   21.5010   63.5590 N.3    24  TRP24      -0.1241
      2  CA         1.5530   21.0410   62.1840 C.3    24  TRP24       0.1605
      3  C          3.0280   21.0660   61.7880 C.2    24  TRP24       0.2264
      4  O          3.7210   22.0810   61.9960 O.2    24  TRP24      -0.2867
      5  CB         0.7660   21.9950   61.2680 C.3    24  TRP24       0.0550
      6  CG        -0.7240   21.9180   61.3560 C.ar   24  TRP24       0.0003
      7  CD1       -1.5620   22.8030   62.0020 C.ar   24  TRP24       0.0946
      8  CD2       -1.5630   20.9740   60.7030 C.ar   24  TRP24       0.0152
      9  NE1       -2.8770   22.4210   61.8310 N.ar   24  TRP24      -0.2442
     10  CE2       -2.9060   21.2960   61.0410 C.ar   24  TRP24       0.0810
     11  CE3       -1.3190   19.8460   59.9000 C.ar   24  TRP24       0.0012
     12  CZ2       -3.9940   20.5570   60.5880 C.ar   24  TRP24       0.0191
     13  CZ3       -2.4250   19.0970   59.4500 C.ar   24  TRP24       0.0001
     14  CH2       -3.7370   19.4580   59.8070 C.ar   24  TRP24       0.0015
     15  N          5.9060   20.9750   58.7740 N.3    26  GLU26      -0.1245
     16  CA         6.0250   21.2910   57.3410 C.3    26  GLU26       0.1567
     17  C          6.6070   20.0830   56.6010 C.2    26  GLU26       0.2260
     18  O          7.7310   19.6470   56.9030 O.2    26  GLU26      -0.2867
     19  CB         6.8900   22.5330   57.1360 C.3    26  GLU26       0.0388
     20  CG         6.9600   22.9740   55.6720 C.3    26  GLU26       0.1160
     21  CD         7.9740   24.0640   55.5270 C.2    26  GLU26       0.3649
     22  OE1        9.1520   23.7280   55.1950 O.co2  26  GLU26      -0.2457
     23  OE2        7.5900   25.2240   55.8060 O.co2  26  GLU26      -0.2457
     24  N         10.6560   30.1150   50.2920 N.3    32  THR32      -0.1218
     25  CA        10.4660   31.5640   50.4000 C.3    32  THR32       0.1862
     26  C         11.8360   32.2430   50.3200 C.2    32  THR32       0.2287
     27  O         11.9620   33.3780   49.8530 O.2    32  THR32      -0.2866
     28  CB         9.6980   31.8670   51.7190 C.3    32  THR32       0.1770
     29  OG1        8.3370   32.2290   51.4170 O.3    32  THR32      -0.2211
     30  CG2       10.2650   33.0510   52.4710 C.3    32  THR32       0.0375
     31  N         10.8340   21.6940   60.7040 N.3    40  ILE40      -0.1231
     32  CA         9.9900   22.8920   60.7230 C.3    40  ILE40       0.1692
     33  C          8.5920   22.5500   61.2080 C.2    40  ILE40       0.2592
     34  O          7.9840   21.6110   60.7220 O.2    40  ILE40      -0.2718
     35  CB         9.9520   23.5570   59.3280 C.3    40  ILE40       0.0266
     36  CG1       11.3890   23.8710   58.8390 C.3    40  ILE40       0.0019
     37  CG2        9.1140   24.8240   59.3920 C.3    40  ILE40       0.0020
     38  CD1       11.4990   24.6280   57.4710 C.3    40  ILE40       0.0001
     39  N          8.1070   23.3000   62.1920 N.am   41  GLN41      -0.1966
     40  CA         6.8040   23.0170   62.8050 C.3    41  GLN41       0.1733
     41  C          6.1570   24.3460   63.2110 C.2    41  GLN41       0.2616
     42  O          6.8570   25.3210   63.5120 O.2    41  GLN41      -0.2715
     43  CB         6.9410   22.0930   64.0160 C.3    41  GLN41       0.0408
     44  CG         7.8770   22.6230   65.1270 C.3    41  GLN41       0.0908
     45  CD         7.5310   22.0380   66.4740 C.2    41  GLN41       0.2608
     46  OE1        6.7840   22.6570   67.2490 O.2    41  GLN41      -0.2717
     47  NE2        7.9880   20.8250   66.7340 N.am   41  GLN41      -0.0878
     48  N          4.8340   24.3820   63.1890 N.am   42  ALA42      -0.1977
     49  CA         4.1380   25.5640   63.6630 C.3    42  ALA42       0.1597
     50  C          3.0610   25.1100   64.6280 C.2    42  ALA42       0.2287
     51  O          2.3470   24.1280   64.3650 O.2    42  ALA42      -0.2864
     52  CB         3.5260   26.3130   62.5040 C.3    42  ALA42       0.0319
     53  N         -0.4280   26.3230   66.3730 N.3    44  TYR44      -0.1241
     54  CA        -1.5500   27.2320   66.2500 C.3    44  TYR44       0.1605
     55  C         -2.4240   27.1370   67.4840 C.2    44  TYR44       0.2264
     56  O         -2.7910   26.0430   67.9090 O.2    44  TYR44      -0.2867
     57  CB        -2.3960   26.8300   65.0340 C.3    44  TYR44       0.0534
     58  CG        -1.6640   26.9940   63.6910 C.ar   44  TYR44      -0.0201
     59  CD1       -1.9460   28.0670   62.8380 C.ar   44  TYR44      -0.0009
     60  CD2       -0.7030   26.0840   63.2930 C.ar   44  TYR44      -0.0009
     61  CE1       -1.2650   28.2070   61.5830 C.ar   44  TYR44       0.0417
     62  CE2       -0.0280   26.2140   62.0560 C.ar   44  TYR44       0.0417
     63  CZ        -0.3180   27.2680   61.2150 C.ar   44  TYR44       0.1957
     64  OH         0.3610   27.3470   60.0060 O.3    44  TYR44      -0.2866
     65  N          0.1960   31.9930   66.0780 N.3    53  VAL53      -0.1245
     66  CA         1.0560   31.0210   65.3940 C.3    53  VAL53       0.1561
     67  C          2.4890   31.1030   65.9100 C.2    53  VAL53       0.2260
     68  O          3.0960   32.1710   65.8720 O.2    53  VAL53      -0.2867
     69  CB         1.0760   31.2720   63.8790 C.3    53  VAL53       0.0252
     70  CG1        1.8800   30.1780   63.1740 C.3    53  VAL53       0.0019
     71  CG2       -0.3400   31.3030   63.3450 C.3    53  VAL53       0.0019
     72  N          6.0230   29.5830   64.9180 N.3    55  ASN55      -0.1240
     73  CA         6.8170   28.7630   63.9640 C.3    55  ASN55       0.1653
     74  C          8.2070   28.5600   64.5010 C.2    55  ASN55       0.2266
     75  O          8.8320   29.5180   64.9690 O.2    55  ASN55      -0.2867
     76  CB         6.9260   29.4020   62.5640 C.3    55  ASN55       0.1155
     77  CG         7.5520   28.4500   61.5370 C.2    55  ASN55       0.2627
     78  OD1        8.7270   28.5880   61.1790 O.2    55  ASN55      -0.2716
     79  ND2        6.7990   27.4460   61.1180 N.am   55  ASN55      -0.0877
     80  N          9.6090   32.3080   65.1160 N.3    67  ILE67      -0.1245
     81  CA         8.8530   33.5270   64.8130 C.3    67  ILE67       0.1561
     82  C          7.3870   33.3950   65.2610 C.2    67  ILE67       0.2260
     83  O          6.7780   32.3570   65.0550 O.2    67  ILE67      -0.2867
     84  CB         8.9850   33.8760   63.3220 C.3    67  ILE67       0.0252
     85  CG1        8.5690   35.3380   63.0650 C.3    67  ILE67       0.0019
     86  CG2        8.2710   32.8580   62.4340 C.3    67  ILE67       0.0019
     87  CD1        8.7310   35.7750   61.5880 C.3    67  ILE67       0.0001
     88  N         -2.1820   36.3220   57.5460 N.3    84  VAL84      -0.1245
     89  CA        -1.2360   36.1160   58.6460 C.3    84  VAL84       0.1561
     90  C         -0.2260   37.2740   58.7140 C.2    84  VAL84       0.2260
     91  O          0.2110   37.7990   57.6930 O.2    84  VAL84      -0.2867
     92  CB        -0.5510   34.7060   58.5340 C.3    84  VAL84       0.0252
     93  CG1        0.2440   34.5670   57.2050 C.3    84  VAL84       0.0019
     94  CG2        0.3140   34.4120   59.7490 C.3    84  VAL84       0.0019
     95  N          3.3690   38.3250   60.8990 N.3    86  PHE86      -0.1241
     96  CA         4.4190   37.8680   61.8190 C.3    86  PHE86       0.1605
     97  C          5.2560   38.9980   62.4310 C.2    86  PHE86       0.2264
     98  O          5.8400   38.8240   63.5040 O.2    86  PHE86      -0.2867
     99  CB         5.3320   36.8460   61.1360 C.3    86  PHE86       0.0534
    100  CG         4.7130   35.4910   60.9920 C.ar   86  PHE86      -0.0203
    101  CD1        4.0820   35.1290   59.8130 C.ar   86  PHE86      -0.0042
    102  CD2        4.7490   34.5840   62.0430 C.ar   86  PHE86      -0.0042
    103  CE1        3.4810   33.8730   59.6850 C.ar   86  PHE86      -0.0003
    104  CE2        4.1530   33.3190   61.9320 C.ar   86  PHE86      -0.0003
    105  CZ         3.5210   32.9630   60.7570 C.ar   86  PHE86      -0.0000
    106  N         -0.1970   38.6240   54.8050 N.3    92  ALA92      -0.1245
    107  CA        -0.1430   37.7930   53.6020 C.3    92  ALA92       0.1562
    108  C         -1.3250   36.8310   53.6710 C.2    92  ALA92       0.2260
    109  O         -1.6960   36.3830   54.7780 O.2    92  ALA92      -0.2867
    110  CB         1.1430   37.0160   53.5930 C.3    92  ALA92       0.0290
    111  N         -3.5020   33.5650   53.8640 N.3    94  TYR94      -0.1241
    112  CA        -3.2960   32.2020   54.3430 C.3    94  TYR94       0.1605
    113  C         -4.5600   31.4430   54.0260 C.2    94  TYR94       0.2264
    114  O         -5.5500   31.5220   54.7550 O.2    94  TYR94      -0.2867
    115  CB        -3.0260   32.2250   55.8580 C.3    94  TYR94       0.0534
    116  CG        -2.6940   30.8950   56.4950 C.ar   94  TYR94      -0.0201
    117  CD1       -1.4060   30.6330   56.9730 C.ar   94  TYR94      -0.0009
    118  CD2       -3.6960   29.9380   56.7280 C.ar   94  TYR94      -0.0009
    119  CE1       -1.1070   29.4170   57.6120 C.ar   94  TYR94       0.0417
    120  CE2       -3.4130   28.7310   57.3470 C.ar   94  TYR94       0.0417
    121  CZ        -2.1090   28.4780   57.8080 C.ar   94  TYR94       0.1957
    122  OH        -1.8490   27.2610   58.4260 O.3    94  TYR94      -0.2866
    123  N         -1.8850   24.7030   52.3880 N.3   107  VAL107     -0.1245
    124  CA        -2.0600   26.1310   52.6090 C.3   107  VAL107      0.1561
    125  C         -1.4460   26.8410   51.4020 C.2   107  VAL107      0.2260
    126  O         -0.3750   26.4640   50.9380 O.2   107  VAL107     -0.2867
    127  CB        -1.3810   26.6070   53.9130 C.3   107  VAL107      0.0252
    128  CG1       -1.4730   28.1120   54.0510 C.3   107  VAL107      0.0019
    129  CG2       -2.0410   25.8840   55.1680 C.3   107  VAL107      0.0019
    130  N          2.3340   25.4060   51.1710 N.3   123  TRP123     -0.1241
    131  CA         2.8790   24.5240   52.1820 C.3   123  TRP123      0.1605
    132  C          1.9360   23.3340   52.3220 C.2   123  TRP123      0.2264
    133  O          0.7250   23.5070   52.4240 O.2   123  TRP123     -0.2867
    134  CB         2.9640   25.2620   53.5550 C.3   123  TRP123      0.0550
    135  CG         3.8350   26.5130   53.5350 C.ar  123  TRP123      0.0003
    136  CD1        5.1540   26.6210   53.9190 C.ar  123  TRP123      0.0946
    137  CD2        3.4290   27.8360   53.1430 C.ar  123  TRP123      0.0152
    138  NE1        5.5820   27.9230   53.7540 N.ar  123  TRP123     -0.2442
    139  CE2        4.5420   28.6820   53.2860 C.ar  123  TRP123      0.0810
    140  CE3        2.2240   28.3890   52.6540 C.ar  123  TRP123      0.0012
    141  CZ2        4.5000   30.0520   52.9490 C.ar  123  TRP123      0.0191
    142  CZ3        2.1720   29.7640   52.3570 C.ar  123  TRP123      0.0001
    143  CH2        3.3050   30.5710   52.5070 C.ar  123  TRP123      0.0015
    144  N          1.2930   20.5430   55.0080 N.3   125  LEU125     -0.1245
    145  CA         1.5320   20.3270   56.4370 C.3   125  LEU125      0.1561
    146  C          0.9510   19.0030   56.8610 C.2   125  LEU125      0.2260
    147  O          0.0150   18.4580   56.2220 O.2   125  LEU125     -0.2867
    148  CB         0.8650   21.4490   57.2720 C.3   125  LEU125      0.0270
    149  CG         1.1080   22.9050   56.8530 C.3   125  LEU125      0.0019
    150  CD1        0.2440   23.8980   57.6670 C.3   125  LEU125      0.0001
    151  CD2        2.5940   23.2690   56.8540 C.3   125  LEU125      0.0001
@<TRIPOS>BOND
     1    27    26    2
     2    24    25    1
     3    26    25    1
     4    25    28    1
     5   126   125    2
     6   130   131    1
     7   125   124    1
     8    29    28    1
     9    28    30    1
    10   131   132    1
    11   131   134    1
    12   132   133    2
    13   142   143   ar
    14   142   140   ar
    15   123   124    1
    16   143   141   ar
    17   124   127    1
    18   140   137   ar
    19   141   139   ar
    20   137   139   ar
    21   137   135   ar
    22   139   138   ar
    23   135   134    1
    24   135   136   ar
    25   110   107    1
    26   107   108    1
    27   107   106    1
    28   108   109    2
    29   138   136   ar
    30   111   112    1
    31   127   128    1
    32   127   129    1
    33   113   112    1
    34   113   114    2
    35   112   115    1
    36   144   145    1
    37    22    21   ar
    38    21    20    1
    39    21    23   ar
    40    20    19    1
    41   115   116    1
    42   147   146    2
    43   145   146    1
    44   145   148    1
    45   116   118   ar
    46   116   117   ar
    47    17    18    2
    48    17    16    1
    49   118   120   ar
    50   149   151    1
    51   149   148    1
    52   149   150    1
    53   117   119   ar
    54    19    16    1
    55    93    92    1
    56    16    15    1
    57   120   121   ar
    58    38    36    1
    59    88    89    1
    60   119   121   ar
    61    91    90    2
    62   121   122    1
    63    92    89    1
    64    92    94    1
    65    89    90    1
    66    36    35    1
    67    35    37    1
    68    35    32    1
    69    13    14   ar
    70    13    11   ar
    71   103   101   ar
    72   103   105   ar
    73    14    12   ar
    74   101   100   ar
    75    11     8   ar
    76    64    63    1
    77    12    10   ar
    78     8    10   ar
    79     8     6   ar
    80    31    32    1
    81    34    33    2
    82    32    33    1
    83   105   104   ar
    84    95    96    1
    85   100    99    1
    86   100   102   ar
    87    10     9   ar
    88    79    77   am
    89    99    96    1
    90    78    77    2
    91    33    39   am
    92    63    61   ar
    93    63    62   ar
    94     5     6    1
    95     5     2    1
    96     6     7   ar
    97    77    76    1
    98    61    59   ar
    99    87    85    1
   100     3     4    2
   101     3     2    1
   102    96    97    1
   103     9     7   ar
   104   104   102   ar
   105    62    60   ar
   106     2     1    1
   107    39    40    1
   108    97    98    2
   109    86    84    1
   110    52    49    1
   111    76    73    1
   112    40    41    1
   113    40    43    1
   114    59    58   ar
   115    85    84    1
   116    70    69    1
   117    48    41   am
   118    48    49    1
   119    41    42    2
   120    60    58   ar
   121    84    81    1
   122    71    69    1
   123    49    50    1
   124    58    57    1
   125    69    66    1
   126    73    74    1
   127    73    72    1
   128    43    44    1
   129    51    50    2
   130    74    75    2
   131    81    80    1
   132    81    82    1
   133    57    54    1
   134    83    82    2
   135    44    45    1
   136    66    67    1
   137    66    65    1
   138    68    67    2
   139    54    53    1
   140    54    55    1
   141    45    47   am
   142    45    46    2
   143    55    56    2
