@<TRIPOS>MOLECULE
tmp/2hzyA00.pdb
 175 167 0 0 0
SMALL
GASTEIGER

@<TRIPOS>ATOM
      1  N         55.4430   44.5040   60.8580 N.3   126  ASP126     -0.1225
      2  CA        54.1210   44.6210   61.5110 C.3   126  ASP126      0.1805
      3  C         53.7780   43.2410   62.0790 C.2   126  ASP126      0.2598
      4  O         53.7110   42.2410   61.3610 O.2   126  ASP126     -0.2718
      5  CB        53.0780   45.0980   60.5060 C.3   126  ASP126      0.1424
      6  CG        51.7650   45.4670   61.1230 C.2   126  ASP126      0.3668
      7  OD1       51.7990   45.8690   62.3170 O.co2 126  ASP126     -0.2456
      8  OD2       50.6970   45.4340   60.4560 O.co2 126  ASP126     -0.2456
      9  N         53.5590   43.1960   63.3880 N.am  127  PHE127     -0.1962
     10  CA        53.0930   41.9740   64.0540 C.3   127  PHE127      0.1771
     11  C         51.5730   41.8750   64.0040 C.2   127  PHE127      0.2619
     12  O         50.8890   42.6570   63.3240 O.2   127  PHE127     -0.2715
     13  CB        53.7070   41.8820   65.4670 C.3   127  PHE127      0.0574
     14  CG        55.1770   41.5460   65.4370 C.ar  127  PHE127     -0.0200
     15  CD1       56.1690   42.5300   65.4310 C.ar  127  PHE127     -0.0042
     16  CD2       55.5530   40.1980   65.3590 C.ar  127  PHE127     -0.0042
     17  CE1       57.5030   42.1890   65.3420 C.ar  127  PHE127     -0.0003
     18  CE2       56.8870   39.8550   65.3040 C.ar  127  PHE127     -0.0003
     19  CZ        57.8550   40.8290   65.3030 C.ar  127  PHE127     -0.0000
     20  N         51.0180   40.8940   64.7000 N.am  128  TYR128     -0.1974
     21  CA        49.6200   40.5130   64.5570 C.3   128  TYR128      0.1639
     22  C         49.1640   40.0220   65.9330 C.2   128  TYR128      0.2290
     23  O         48.4410   39.0120   66.0550 O.2   128  TYR128     -0.2864
     24  CB        49.5580   39.4030   63.4940 C.3   128  TYR128      0.0560
     25  CG        48.2510   38.8710   63.0000 C.ar  128  TYR128     -0.0198
     26  CD1       47.1550   39.7030   62.7710 C.ar  128  TYR128     -0.0009
     27  CD2       48.1210   37.5270   62.6850 C.ar  128  TYR128     -0.0009
     28  CE1       45.9980   39.2270   62.2210 C.ar  128  TYR128      0.0417
     29  CE2       46.9660   37.0640   62.1520 C.ar  128  TYR128      0.0417
     30  CZ        45.9170   37.8850   61.9180 C.ar  128  TYR128      0.1957
     31  OH        44.6840   37.5070   61.3720 O.3   128  TYR128     -0.2866
     32  N         41.8270   40.8640   67.4880 N.3   133  HIS133     -0.1241
     33  CA        41.9370   41.2630   66.1130 C.3   133  HIS133      0.1621
     34  C         42.1320   40.0820   65.1850 C.2   133  HIS133      0.2264
     35  O         41.4570   39.9920   64.1650 O.2   133  HIS133     -0.2867
     36  CB        43.0790   42.2720   65.9200 C.3   133  HIS133      0.0745
     37  CG        43.3510   42.5960   64.4880 C.ar  133  HIS133      0.0817
     38  ND1       42.5700   43.4460   63.7250 N.ar  133  HIS133     -0.2268
     39  CD2       44.3660   42.1990   63.6900 C.ar  133  HIS133      0.1154
     40  CE1       43.0740   43.5050   62.4930 C.ar  133  HIS133      0.1986
     41  NE2       44.1550   42.7360   62.4400 N.ar  133  HIS133     -0.2212
     42  N         39.4240   38.9270   62.2950 N.3   137  VAL137     -0.1245
     43  CA        39.7650   38.7760   60.9030 C.3   137  VAL137      0.1561
     44  C         39.4010   37.2970   60.5490 C.2   137  VAL137      0.2260
     45  O         38.6970   37.0170   59.5560 O.2   137  VAL137     -0.2867
     46  CB        41.1880   39.2800   60.5570 C.3   137  VAL137      0.0252
     47  CG1       41.5130   39.0530   59.0990 C.3   137  VAL137      0.0019
     48  CG2       41.3210   40.7940   60.8430 C.3   137  VAL137      0.0019
     49  N         36.6610   36.0300   57.7520 N.3   141  PHE141     -0.1227
     50  CA        37.2410   35.5220   56.5060 C.3   141  PHE141      0.1736
     51  C         37.2000   33.9840   56.3640 C.2   141  PHE141      0.2598
     52  O         37.2070   33.4550   55.2490 O.2   141  PHE141     -0.2717
     53  CB        38.7260   35.8760   56.4930 C.3   141  PHE141      0.0547
     54  CG        39.0590   37.2350   55.9990 C.ar  141  PHE141     -0.0202
     55  CD1       40.3590   37.4630   55.5250 C.ar  141  PHE141     -0.0042
     56  CD2       38.1550   38.2970   56.0500 C.ar  141  PHE141     -0.0042
     57  CE1       40.7390   38.7310   55.0600 C.ar  141  PHE141     -0.0003
     58  CE2       38.5220   39.5860   55.5760 C.ar  141  PHE141     -0.0003
     59  CZ        39.8100   39.7910   55.0870 C.ar  141  PHE141     -0.0000
     60  N         37.2180   33.2800   57.4870 N.am  142  ARG142     -0.1934
     61  CA        37.5200   31.8680   57.4730 C.3   142  ARG142      0.1813
     62  C         36.4500   31.1540   58.3420 C.2   142  ARG142      0.2332
     63  O         36.3190   29.9100   58.2970 O.2   142  ARG142     -0.2860
     64  CB        39.0030   31.6130   57.9530 C.2   142  ARG142      0.0019
     65  CG        40.1990   32.3120   57.0450 C.2   142  ARG142      0.0178
     66  CD        41.6940   32.3940   57.6820 C.3   142  ARG142      0.2464
     67  NE        42.5450   33.3650   56.9310 N.pl3 142  ARG142     -0.0815
     68  CZ        43.1430   34.4980   57.3870 C.cat 142  ARG142      0.5349
     69  NH1       43.1350   34.8590   58.6710 N.pl3 142  ARG142      0.1354
     70  NH2       43.7510   35.2960   56.4940 N.pl3 142  ARG142      0.1354
     71  N         44.5370   30.6250   63.2410 N.3   149  LEU149     -0.1245
     72  CA        45.3080   29.5900   62.5840 C.3   149  LEU149      0.1561
     73  C         46.2350   28.8880   63.5770 C.2   149  LEU149      0.2260
     74  O         46.5360   29.4130   64.6320 O.2   149  LEU149     -0.2867
     75  CB        46.0490   30.2360   61.4330 C.3   149  LEU149      0.0270
     76  CG        44.9620   30.6990   60.4480 C.3   149  LEU149      0.0019
     77  CD1       45.4970   31.7860   59.5780 C.3   149  LEU149      0.0001
     78  CD2       44.4110   29.5810   59.5820 C.3   149  LEU149      0.0001
     79  N         54.8890   40.2330   59.5980 N.3   159  TYR159     -0.1241
     80  CA        55.3780   40.2730   58.2050 C.3   159  TYR159      0.1605
     81  C         56.2060   41.5220   58.0500 C.2   159  TYR159      0.2264
     82  O         56.0860   42.4970   58.8370 O.2   159  TYR159     -0.2867
     83  CB        54.1960   40.2590   57.1930 C.3   159  TYR159      0.0534
     84  CG        53.3090   41.4890   57.2830 C.ar  159  TYR159     -0.0201
     85  CD1       53.4040   42.5120   56.3230 C.ar  159  TYR159     -0.0009
     86  CD2       52.4010   41.6290   58.3290 C.ar  159  TYR159     -0.0009
     87  CE1       52.6430   43.6870   56.4350 C.ar  159  TYR159      0.0417
     88  CE2       51.6000   42.8140   58.4350 C.ar  159  TYR159      0.0417
     89  CZ        51.7440   43.8110   57.4830 C.ar  159  TYR159      0.1957
     90  OH        51.0190   44.9760   57.6210 O.3   159  TYR159     -0.2866
     91  N         44.1070   51.1900   60.7580 N.3   199  GLU199     -0.1245
     92  CA        44.4140   50.1680   61.7630 C.3   199  GLU199      0.1567
     93  C         45.0950   50.8260   62.9110 C.2   199  GLU199      0.2260
     94  O         46.2100   51.3570   62.7730 O.2   199  GLU199     -0.2867
     95  CB        45.3440   49.0680   61.2270 C.3   199  GLU199      0.0388
     96  CG        44.6720   48.1000   60.2370 C.3   199  GLU199      0.1160
     97  CD        45.5570   46.8710   59.9820 C.2   199  GLU199      0.3649
     98  OE1       45.0320   45.7780   59.7020 O.co2 199  GLU199     -0.2457
     99  OE2       46.7710   46.9520   60.0660 O.co2 199  GLU199     -0.2457
    100  N         47.4480   50.8940   65.7880 N.3   201  GLU201     -0.1245
    101  CA        48.5920   50.1020   66.2890 C.3   201  GLU201      0.1567
    102  C         49.4740   50.9840   67.1410 C.2   201  GLU201      0.2260
    103  O         49.3290   52.1990   67.1610 O.2   201  GLU201     -0.2867
    104  CB        49.4150   49.5460   65.1010 C.3   201  GLU201      0.0388
    105  CG        48.5380   48.7810   64.1080 C.3   201  GLU201      0.1160
    106  CD        49.2950   47.8350   63.2100 C.2   201  GLU201      0.3649
    107  OE1       50.2980   47.2360   63.6860 O.co2 201  GLU201     -0.2457
    108  OE2       48.8960   47.6700   62.0270 O.co2 201  GLU201     -0.2457
    109  N         48.1560   51.8290   60.4120 N.3   233  ASP233     -0.1239
    110  CA        48.5370   51.0190   59.2590 C.3   233  ASP233      0.1674
    111  C         47.4040   51.0760   58.2410 C.2   233  ASP233      0.2266
    112  O         46.6030   50.1500   58.1470 O.2   233  ASP233     -0.2867
    113  CB        48.8620   49.5760   59.7330 C.3   233  ASP233      0.1410
    114  CG        49.3290   48.6680   58.6360 C.2   233  ASP233      0.3668
    115  OD1       49.7250   49.1700   57.5310 O.co2 233  ASP233     -0.2456
    116  OD2       49.3140   47.4030   58.8560 O.co2 233  ASP233     -0.2456
    117  N         41.4790   47.0190   51.7520 N.3   237  ARG237     -0.1245
    118  CA        41.1180   45.6310   52.0790 C.3   237  ARG237      0.1563
    119  C         40.7860   44.7910   50.8490 C.2   237  ARG237      0.2260
    120  O         40.9830   43.5810   50.8620 O.2   237  ARG237     -0.2867
    121  CB        39.9610   45.5550   53.0700 C.3   237  ARG237      0.0307
    122  CG        40.2350   46.2160   54.4070 C.3   237  ARG237      0.0489
    123  CD        41.4740   45.6920   55.1100 C.3   237  ARG237      0.2205
    124  NE        41.5290   46.1290   56.5130 N.pl3 237  ARG237     -0.0865
    125  CZ        42.4200   45.6710   57.3660 C.cat 237  ARG237      0.5346
    126  NH1       43.3180   44.7560   56.9960 N.pl3 237  ARG237      0.1354
    127  NH2       42.4050   46.0720   58.6310 N.pl3 237  ARG237      0.1354
    128  N         44.1310   44.0040   49.3150 N.3   240  GLN240     -0.1245
    129  CA        44.7300   43.0240   50.2030 C.3   240  GLN240      0.1566
    130  C         44.1880   41.6220   49.9940 C.2   240  GLN240      0.2260
    131  O         44.9620   40.6550   49.8580 O.2   240  GLN240     -0.2867
    132  CB        44.5390   43.4720   51.6530 C.3   240  GLN240      0.0367
    133  CG        45.2620   42.5870   52.6850 C.3   240  GLN240      0.0905
    134  CD        45.0950   43.0920   54.1140 C.2   240  GLN240      0.2608
    135  OE1       44.6470   44.2350   54.3430 O.2   240  GLN240     -0.2717
    136  NE2       45.4410   42.2720   55.0720 N.am  240  GLN240     -0.0878
    137  N         46.9130   38.5170   48.6840 N.3   244  TYR244     -0.1241
    138  CA        47.7570   38.1420   49.8130 C.3   244  TYR244      0.1605
    139  C         48.0940   36.6720   49.8870 C.2   244  TYR244      0.2264
    140  O         48.9530   36.3020   50.6860 O.2   244  TYR244     -0.2867
    141  CB        47.2050   38.6540   51.1740 C.3   244  TYR244      0.0534
    142  CG        46.1920   37.7380   51.8030 C.ar  244  TYR244     -0.0201
    143  CD1       46.5480   36.8960   52.8720 C.ar  244  TYR244     -0.0009
    144  CD2       44.9010   37.6780   51.3190 C.ar  244  TYR244     -0.0009
    145  CE1       45.6070   36.0230   53.4400 C.ar  244  TYR244      0.0417
    146  CE2       43.9540   36.8200   51.8800 C.ar  244  TYR244      0.0417
    147  CZ        44.3020   36.0220   52.9380 C.ar  244  TYR244      0.1957
    148  OH        43.3440   35.1550   53.4890 O.3   244  TYR244     -0.2866
    149  N         50.3350   40.2500   52.9470 N.2   249  PRO249     -0.2584
    150  CA        49.8600   41.5760   52.5200 C.3   249  PRO249      0.1895
    151  C         51.0000   42.3560   51.8820 C.2   249  PRO249      0.2359
    152  O         52.1690   42.2490   52.2980 O.2   249  PRO249     -0.2858
    153  CB        49.4280   42.2400   53.8280 C.2   249  PRO249      0.0071
    154  CG        49.8680   41.3830   54.9360 C.2   249  PRO249      0.0180
    155  CD        50.3360   40.0750   54.4000 C.2   249  PRO249      0.0937
    156  N         48.9220   47.2780   51.9460 N.3   253  LYS253     -0.1245
    157  CA        49.4480   47.9920   53.1140 C.3   253  LYS253      0.1561
    158  C         50.4170   49.0840   52.7360 C.2   253  LYS253      0.2260
    159  O         50.6220   50.0170   53.5590 O.2   253  LYS253     -0.2867
    160  CB        50.2460   47.0060   54.0170 C.3   253  LYS253      0.0271
    161  CG        49.4320   45.8750   54.5560 C.3   253  LYS253      0.0035
    162  CD        48.3710   46.3620   55.5140 C.3   253  LYS253      0.0206
    163  CE        47.7700   45.1930   56.2290 C.3   253  LYS253      0.1093
    164  NZ        46.7680   45.6850   57.2530 N.3   253  LYS253     -0.1314
    165  N         50.7410   45.1630   65.7710 N.3   349  GLY349     -0.1210
    166  CA        49.4830   44.6070   65.2650 C.3   349  GLY349      0.1956
    167  C         48.3180   45.5310   65.6520 C.2   349  GLY349      0.2612
    168  O         48.4190   46.3710   66.5550 O.2   349  GLY349     -0.2717
    169  N         47.2020   45.3730   64.9610 N.am  350  THR350     -0.1952
    170  CA        45.9940   46.1150   65.2700 C.3   350  THR350      0.1897
    171  C         45.4980   45.7800   66.6540 C.2   350  THR350      0.2313
    172  O         45.3500   44.5910   67.0260 O.2   350  THR350     -0.2863
    173  CB        44.9540   45.8150   64.1890 C.3   350  THR350      0.1794
    174  OG1       45.4770   46.2410   62.9310 O.3   350  THR350     -0.2208
    175  CG2       43.6310   46.6050   64.4260 C.3   350  THR350      0.0378
@<TRIPOS>BOND
     1   137   138    1
     2   128   129    1
     3   138   139    1
     4   138   141    1
     5   131   130    2
     6   139   140    2
     7   130   129    1
     8   129   132    1
     9   119   120    2
    10   119   118    1
    11   141   142    1
    12   144   142   ar
    13   144   146   ar
    14   132   133    1
    15   117   118    1
    16   142   143   ar
    17   146   147   ar
    18   151   152    2
    19   151   150    1
    20   156   157    1
    21   118   121    1
    22   150   149    1
    23   150   153    1
    24   133   134    1
    25   158   157    1
    26   158   159    2
    27   143   145   ar
    28   147   145   ar
    29   147   148    1
    30   149   155    2
    31   121   122    1
    32   157   160    1
    33   153   154    2
    34   160   161    1
    35   134   135    2
    36   134   136   am
    37   155   154    1
    38   122   123    1
    39   161   162    1
    40    57    59   ar
    41    57    55   ar
    42    59    58   ar
    43   123   124    1
    44    52    51    2
    45   162   163    1
    46    55    54   ar
    47    58    56   ar
    48    54    56   ar
    49    54    53    1
    50   163   164    1
    51    85    87   ar
    52    85    84   ar
    53    51    50    1
    54    51    60   am
    55    87    89   ar
    56    53    50    1
    57    70    68    1
    58    50    49    1
    59   124   125    2
    60    67    68    2
    61    67    66    1
    62   126   125    1
    63    65    66    1
    64    65    64    2
    65    83    84    1
    66    83    80    1
    67    84    86   ar
    68   125   127    1
    69    68    69    1
    70    61    60    1
    71    61    64    1
    72    61    62    1
    73    89    90    1
    74    89    88   ar
    75   115   114   ar
    76    81    80    1
    77    81    82    2
    78   112   111    2
    79    80    79    1
    80   111   110    1
    81    63    62    2
    82    86    88   ar
    83   114   116   ar
    84   114   113    1
    85    47    46    1
    86   110   113    1
    87   110   109    1
    88    45    44    2
    89    77    76    1
    90    78    76    1
    91    98    97   ar
    92    97    99   ar
    93    97    96    1
    94    96    95    1
    95    76    75    1
    96     8     6   ar
    97     5     6    1
    98     5     2    1
    99    44    43    1
   100    46    48    1
   101    46    43    1
   102    91    92    1
   103     1     2    1
   104    43    42    1
   105     6     7   ar
   106    95    92    1
   107     4     3    2
   108    31    30    1
   109    75    72    1
   110     2     3    1
   111    92    93    1
   112    30    29   ar
   113    30    28   ar
   114   108   106   ar
   115     3     9   am
   116    29    27   ar
   117    28    26   ar
   118    41    40   ar
   119    41    39   ar
   120    40    38   ar
   121    72    71    1
   122    72    73    1
   123    27    25   ar
   124    26    25   ar
   125    94    93    2
   126   174   173    1
   127    25    24    1
   128   106   107   ar
   129   106   105    1
   130    12    11    2
   131     9    10    1
   132    24    21    1
   133    73    74    2
   134    39    37   ar
   135    38    37   ar
   136    11    10    1
   137    11    20   am
   138    10    13    1
   139   105   104    1
   140    35    34    2
   141   173   175    1
   142   173   170    1
   143    37    36    1
   144    21    20    1
   145    21    22    1
   146   169   170    1
   147   169   167   am
   148   104   101    1
   149    34    33    1
   150   166   167    1
   151   166   165    1
   152   170   171    1
   153    19    18   ar
   154    19    17   ar
   155    18    16   ar
   156    17    15   ar
   157    16    14   ar
   158    15    14   ar
   159    14    13    1
   160   167   168    2
   161   100   101    1
   162    36    33    1
   163    22    23    2
   164    33    32    1
   165   101   102    1
   166   171   172    2
   167   102   103    2
