@<TRIPOS>MOLECULE
tmp/2i02A00.pdb
 136 139 0 0 0
SMALL
GASTEIGER

@<TRIPOS>ATOM
      1  N         25.8550   29.4440    8.0520 N.3    19  TYR19      -0.1241
      2  CA        25.4540   29.8690    9.3920 C.3    19  TYR19       0.1605
      3  C         24.6120   28.7410   10.0120 C.2    19  TYR19       0.2264
      4  O         23.7690   28.1550    9.3570 O.2    19  TYR19      -0.2867
      5  CB        24.6490   31.1810    9.3730 C.3    19  TYR19       0.0534
      6  CG        25.3340   32.2980    8.5960 C.ar   19  TYR19      -0.0201
      7  CD1       26.5020   32.8840    9.0660 C.ar   19  TYR19      -0.0009
      8  CD2       24.8490   32.7180    7.3600 C.ar   19  TYR19      -0.0009
      9  CE1       27.1490   33.8750    8.3500 C.ar   19  TYR19       0.0417
     10  CE2       25.4910   33.7020    6.6310 C.ar   19  TYR19       0.0417
     11  CZ        26.6420   34.2820    7.1310 C.ar   19  TYR19       0.1957
     12  OH        27.2930   35.2790    6.4140 O.3    19  TYR19      -0.2866
     13  N         21.0110   31.5890   18.4830 N.3    33  TYR33      -0.1228
     14  CA        21.8090   32.6590   17.9080 C.3    33  TYR33       0.1721
     15  C         22.4330   32.2140   16.5930 C.2    33  TYR33       0.2437
     16  O         23.0160   31.1390   16.5620 O.2    33  TYR33      -0.2733
     17  CB        22.9950   32.9620   18.8480 C.3    33  TYR33       0.0547
     18  CG        22.6920   33.1340   20.3030 C.ar   33  TYR33      -0.0200
     19  CD1       22.6600   32.0530   21.1760 C.ar   33  TYR33      -0.0009
     20  CD2       22.5120   34.3980   20.8380 C.ar   33  TYR33      -0.0009
     21  CE1       22.3710   32.2310   22.5270 C.ar   33  TYR33       0.0417
     22  CE2       22.2450   34.5880   22.1910 C.ar   33  TYR33       0.0417
     23  CZ        22.1740   33.5120   23.0370 C.ar   33  TYR33       0.1957
     24  OH        21.9100   33.7510   24.3870 O.3    33  TYR33      -0.2866
     25  N         22.3740   33.0310   15.5350 N.am   34  PRO34      -0.2729
     26  CA        23.0970   32.6490   14.3240 C.3    34  PRO34       0.1401
     27  C         24.5870   32.7410   14.5290 C.2    34  PRO34       0.2269
     28  O         25.0520   33.6790   15.1410 O.2    34  PRO34      -0.2865
     29  CB        22.6360   33.6450   13.2720 C.3    34  PRO34       0.0296
     30  CG        22.1280   34.7900   14.0200 C.3    34  PRO34       0.0237
     31  CD        21.6670   34.3070   15.3670 C.3    34  PRO34       0.0939
     32  N         28.5010   31.8360   12.5260 N.3    35  SER35      -0.1217
     33  CA        29.2360   31.4340   11.3490 C.3    35  SER35       0.1889
     34  C         30.1950   30.3190   11.7260 C.2    35  SER35       0.2288
     35  O         31.0140   30.5160   12.5880 O.2    35  SER35      -0.2866
     36  CB        30.0360   32.6280   10.8100 C.3    35  SER35       0.2089
     37  OG        30.6400   32.2920    9.5700 O.3    35  SER35      -0.2183
     38  N         33.5020   27.9840   16.6360 N.3    45  PHE45      -0.1227
     39  CA        32.9100   29.2950   16.3440 C.3    45  PHE45       0.1736
     40  C         33.6770   30.3550   17.0940 C.2    45  PHE45       0.2595
     41  O         34.0930   30.1190   18.2320 O.2    45  PHE45      -0.2718
     42  CB        31.4510   29.3820   16.8010 C.3    45  PHE45       0.0547
     43  CG        30.5840   28.2990   16.2500 C.ar   45  PHE45      -0.0202
     44  CD1       30.4710   27.0760   16.9040 C.ar   45  PHE45      -0.0042
     45  CD2       29.8840   28.4990   15.0720 C.ar   45  PHE45      -0.0042
     46  CE1       29.6650   26.0430   16.3700 C.ar   45  PHE45      -0.0003
     47  CE2       29.0600   27.4950   14.5450 C.ar   45  PHE45      -0.0003
     48  CZ        28.9670   26.2750   15.1800 C.ar   45  PHE45      -0.0000
     49  N         33.8580   31.5070   16.4640 N.am   46  PHE46      -0.1962
     50  CA        34.3670   32.6810   17.1690 C.3    46  PHE46       0.1771
     51  C         33.2510   33.3450   17.9480 C.2    46  PHE46       0.2620
     52  O         32.1010   33.3860   17.4890 O.2    46  PHE46      -0.2715
     53  CB        34.9920   33.6570   16.1650 C.3    46  PHE46       0.0574
     54  CG        36.3350   33.2500   15.6910 C.ar   46  PHE46      -0.0200
     55  CD1       37.4960   33.6640   16.3520 C.ar   46  PHE46      -0.0042
     56  CD2       36.4650   32.4750   14.5340 C.ar   46  PHE46      -0.0042
     57  CE1       38.7480   33.2950   15.8890 C.ar   46  PHE46      -0.0003
     58  CE2       37.7180   32.0970   14.0790 C.ar   46  PHE46      -0.0003
     59  CZ        38.8660   32.5220   14.7550 C.ar   46  PHE46      -0.0000
     60  N         33.5620   33.8320   19.1490 N.am   47  THR47      -0.1937
     61  CA        32.6040   34.5440   19.9920 C.3    47  THR47       0.2028
     62  C         33.3470   35.6150   20.8040 C.2    47  THR47       0.2642
     63  O         34.5740   35.7560   20.6540 O.2    47  THR47      -0.2714
     64  CB        31.8660   33.5970   20.9240 C.3    47  THR47       0.1808
     65  OG1       30.7170   34.2740   21.4370 O.3    47  THR47      -0.2208
     66  CG2       32.7920   33.0940   22.0540 C.3    47  THR47       0.0379
     67  N         32.6150   36.4110   21.5810 N.am   48  TYR48      -0.1973
     68  CA        33.2190   37.3250   22.5560 C.3    48  TYR48       0.1639
     69  C         33.0990   36.6190   23.9110 C.2    48  TYR48       0.2290
     70  O         32.0340   36.0920   24.2410 O.2    48  TYR48      -0.2864
     71  CB        32.5200   38.6790   22.5700 C.3    48  TYR48       0.0560
     72  CG        32.7420   39.4570   21.3030 C.ar   48  TYR48      -0.0198
     73  CD1       33.9330   40.1440   21.0950 C.ar   48  TYR48      -0.0009
     74  CD2       31.7750   39.4960   20.3060 C.ar   48  TYR48      -0.0009
     75  CE1       34.1520   40.8680   19.9290 C.ar   48  TYR48       0.0417
     76  CE2       31.9900   40.2110   19.1180 C.ar   48  TYR48       0.0417
     77  CZ        33.1720   40.8920   18.9470 C.ar   48  TYR48       0.1957
     78  OH        33.3990   41.6200   17.8050 O.3    48  TYR48      -0.2866
     79  N         30.2500   37.5090   26.2120 N.3    51  SER51      -0.1202
     80  CA        28.9010   37.3570   25.7110 C.3    51  SER51       0.2020
     81  C         27.9820   36.5530   26.6490 C.2    51  SER51       0.2619
     82  O         28.4280   35.7310   27.4670 O.2    51  SER51      -0.2717
     83  CB        28.8980   36.7030   24.3260 C.3    51  SER51       0.2103
     84  OG        29.3370   35.3630   24.4250 O.3    51  SER51      -0.2182
     85  N         26.6860   36.7930   26.5170 N.am   52  HIS52      -0.1961
     86  CA        25.7260   36.0950   27.3690 C.3    52  HIS52       0.1787
     87  C         25.7420   34.5960   27.0580 C.2    52  HIS52       0.2620
     88  O         25.6300   33.8030   27.9620 O.2    52  HIS52      -0.2715
     89  CB        24.3140   36.6950   27.2240 C.3    52  HIS52       0.0785
     90  CG        23.3400   36.1330   28.2140 C.ar   52  HIS52       0.0821
     91  ND1       23.5200   36.2470   29.5750 N.ar   52  HIS52      -0.2267
     92  CD2       22.1980   35.4270   28.0450 C.ar   52  HIS52       0.1154
     93  CE1       22.5350   35.6320   30.2030 C.ar   52  HIS52       0.1986
     94  NE2       21.7170   35.1260   29.2990 N.ar   52  HIS52      -0.2212
     95  N         25.9140   34.1990   25.8060 N.am   53  LYS53      -0.1977
     96  CA        25.9280   32.7800   25.4680 C.3    53  LYS53       0.1596
     97  C         27.0620   32.0420   26.2010 C.2    53  LYS53       0.2287
     98  O         26.9480   30.8780   26.5300 O.2    53  LYS53      -0.2864
     99  CB        25.9910   32.5450   23.9490 C.3    53  LYS53       0.0298
    100  CG        27.3330   32.8180   23.2500 C.3    53  LYS53       0.0038
    101  CD        27.2210   32.6290   21.7390 C.3    53  LYS53       0.0206
    102  CE        26.4540   33.7840   21.0470 C.3    53  LYS53       0.1093
    103  NZ        27.0980   35.0920   21.3980 N.3    53  LYS53      -0.1314
    104  N         34.8220   36.9840    8.7770 N.3    98  LEU98      -0.1245
    105  CA        34.4180   37.1720   10.1670 C.3    98  LEU98       0.1561
    106  C         34.5770   38.6150   10.6550 C.2    98  LEU98       0.2260
    107  O         34.0590   38.9660   11.7060 O.2    98  LEU98      -0.2867
    108  CB        35.2080   36.2290   11.0720 C.3    98  LEU98       0.0270
    109  CG        34.8340   34.7650   10.8680 C.3    98  LEU98       0.0019
    110  CD1       35.6980   33.8850   11.7450 C.3    98  LEU98       0.0001
    111  CD2       33.3650   34.5240   11.1670 C.3    98  LEU98       0.0001
    112  N         31.5500   40.5920   12.0670 N.3   101  TRP101     -0.1227
    113  CA        31.1190   40.5270   13.4650 C.3   101  TRP101      0.1737
    114  C         32.2720   40.7980   14.4180 C.2   101  TRP101      0.2595
    115  O         32.0260   41.0100   15.6070 O.2   101  TRP101     -0.2718
    116  CB        30.4530   39.1760   13.7820 C.3   101  TRP101      0.0564
    117  CG        29.3190   38.9350   12.8680 C.ar  101  TRP101      0.0003
    118  CD1       28.0510   39.4310   12.9800 C.ar  101  TRP101      0.0946
    119  CD2       29.3660   38.2190   11.6400 C.ar  101  TRP101      0.0152
    120  NE1       27.2980   39.0440   11.8980 N.ar  101  TRP101     -0.2442
    121  CE2       28.0830   38.2970   11.0600 C.ar  101  TRP101      0.0810
    122  CE3       30.3650   37.5020   10.9750 C.ar  101  TRP101      0.0012
    123  CZ2       27.7760   37.6900    9.8450 C.ar  101  TRP101      0.0191
    124  CZ3       30.0520   36.8870    9.7660 C.ar  101  TRP101      0.0001
    125  CH2       28.7730   36.9850    9.2160 C.ar  101  TRP101      0.0015
    126  N         33.4970   40.7920   13.8780 N.am  102  PHE102     -0.1976
    127  CA        34.7580   41.0170   14.6280 C.3   102  PHE102      0.1639
    128  C         35.6410   42.0390   13.8990 C.2   102  PHE102      0.2290
    129  O         36.6440   41.6940   13.2600 O.2   102  PHE102     -0.2864
    130  CB        35.4980   39.6830   14.8440 C.3   102  PHE102      0.0560
    131  CG        34.6830   38.6660   15.5680 C.ar  102  PHE102     -0.0200
    132  CD1       34.6260   38.6580   16.9510 C.ar  102  PHE102     -0.0042
    133  CD2       33.9280   37.7240   14.8780 C.ar  102  PHE102     -0.0042
    134  CE1       33.8450   37.7350   17.6290 C.ar  102  PHE102     -0.0003
    135  CE2       33.1580   36.8050   15.5530 C.ar  102  PHE102     -0.0003
    136  CZ        33.1070   36.8090   16.9230 C.ar  102  PHE102     -0.0000
@<TRIPOS>BOND
     1    12    11    1
     2    10    11   ar
     3    10     8   ar
     4    11     9   ar
     5     8     6   ar
     6     1     2    1
     7     9     7   ar
     8     6     7   ar
     9     6     5    1
    10   104   105    1
    11   125   124   ar
    12   125   123   ar
    13     4     3    2
    14     5     2    1
    15     2     3    1
    16    37    36    1
    17   124   122   ar
    18   123   121   ar
    19   105   106    1
    20   105   108    1
    21   106   107    2
    22    36    33    1
    23   109   108    1
    24   109   111    1
    25   109   110    1
    26   122   119   ar
    27   121   119   ar
    28   121   120   ar
    29    33    34    1
    30    33    32    1
    31   119   117   ar
    32    34    35    2
    33   120   118   ar
    34   112   113    1
    35   117   118   ar
    36   117   116    1
    37   129   128    2
    38    29    30    1
    39    29    26    1
    40   113   116    1
    41   113   114    1
    42   126   114   am
    43   126   127    1
    44   128   127    1
    45    30    31    1
    46    58    56   ar
    47    58    59   ar
    48    26    27    1
    49    26    25    1
    50   114   115    2
    51    27    28    2
    52    56    54   ar
    53    47    45   ar
    54    47    48   ar
    55   127   130    1
    56    59    57   ar
    57   130   131    1
    58   133   135   ar
    59   133   131   ar
    60    45    43   ar
    61    48    46   ar
    62    31    25    1
    63    25    15   am
    64   135   136   ar
    65   131   132   ar
    66    54    53    1
    67    54    55   ar
    68    57    55   ar
    69    53    50    1
    70    43    42    1
    71    43    44   ar
    72    39    38    1
    73    39    42    1
    74    39    40    1
    75    46    44   ar
    76    49    40   am
    77    49    50    1
    78    16    15    2
    79    15    14    1
    80   136   134   ar
    81   132   134   ar
    82    40    41    2
    83    50    51    1
    84    52    51    2
    85    78    77    1
    86    14    13    1
    87    14    17    1
    88    51    60   am
    89    17    18    1
    90    77    76   ar
    91    77    75   ar
    92    76    74   ar
    93    60    61    1
    94    75    73   ar
    95    61    62    1
    96    61    64    1
    97    18    20   ar
    98    18    19   ar
    99    74    72   ar
   100    63    62    2
   101    62    67   am
   102    20    22   ar
   103    64    65    1
   104    64    66    1
   105   102   103    1
   106   102   101    1
   107    73    72   ar
   108    19    21   ar
   109    72    71    1
   110    67    68    1
   111   101   100    1
   112    22    23   ar
   113    21    23   ar
   114    68    71    1
   115    68    69    1
   116    23    24    1
   117   100    99    1
   118    69    70    2
   119    99    96    1
   120    83    84    1
   121    83    80    1
   122    96    95    1
   123    96    97    1
   124    80    79    1
   125    80    81    1
   126    95    87   am
   127    97    98    2
   128    85    81   am
   129    85    86    1
   130    81    82    2
   131    87    86    1
   132    87    88    2
   133    89    86    1
   134    89    90    1
   135    92    90   ar
   136    92    94   ar
   137    90    91   ar
   138    94    93   ar
   139    91    93   ar
