@<TRIPOS>MOLECULE
tmp/2i03B00.pdb
 178 174 0 0 0
SMALL
GASTEIGER

@<TRIPOS>ATOM
      1  N         30.4450   -4.8940   61.2170 N.3    87  ARG87      -0.1231
      2  CA        31.3520   -4.3240   60.2230 C.3    87  ARG87       0.1694
      3  C         32.5910   -5.1780   59.9760 C.2    87  ARG87       0.2592
      4  O         33.0610   -5.2820   58.8380 O.2    87  ARG87      -0.2718
      5  CB        31.7940   -2.9120   60.6330 C.3    87  ARG87       0.0321
      6  CG        32.6000   -2.1790   59.5610 C.3    87  ARG87       0.0489
      7  CD        33.3460   -0.9700   60.1230 C.3    87  ARG87       0.2205
      8  NE        32.4720    0.1070   60.5920 N.pl3  87  ARG87      -0.0865
      9  CZ        31.8280    0.9530   59.7940 C.cat  87  ARG87       0.5346
     10  NH1       31.9520    0.8490   58.4780 N.pl3  87  ARG87       0.1354
     11  NH2       31.0800    1.9240   60.3080 N.pl3  87  ARG87       0.1354
     12  N         33.1210   -5.7910   61.0300 N.am   88  HIS88      -0.1976
     13  CA        34.3190   -6.6090   60.8800 C.3    88  HIS88       0.1656
     14  C         34.0900   -8.0920   61.1660 C.2    88  HIS88       0.2291
     15  O         34.6390   -8.9510   60.4760 O.2    88  HIS88      -0.2864
     16  CB        35.4330   -6.0980   61.8060 C.3    88  HIS88       0.0771
     17  CG        35.7600   -4.6470   61.6290 C.ar   88  HIS88       0.0820
     18  ND1       36.3550   -4.1500   60.4890 N.ar   88  HIS88      -0.2267
     19  CD2       35.5720   -3.5850   62.4490 C.ar   88  HIS88       0.1154
     20  CE1       36.5190   -2.8450   60.6150 C.ar   88  HIS88       0.1986
     21  NE2       36.0530   -2.4780   61.7950 N.ar   88  HIS88      -0.2212
     22  N         33.7050   -2.0240   66.6690 N.3   167  GLU167     -0.1231
     23  CA        33.4590   -0.8010   65.9140 C.3   167  GLU167      0.1699
     24  C         34.2890    0.4090   66.3010 C.2   167  GLU167      0.2592
     25  O         34.8860    1.0450   65.4360 O.2   167  GLU167     -0.2718
     26  CB        31.9780   -0.4170   66.0210 C.3   167  GLU167      0.0402
     27  CG        31.5860    0.8770   65.2920 C.3   167  GLU167      0.1161
     28  CD        31.4890    0.7260   63.7630 C.2   167  GLU167      0.3649
     29  OE1       31.6620   -0.3960   63.2370 O.co2 167  GLU167     -0.2457
     30  OE2       31.2300    1.7410   63.0820 O.co2 167  GLU167     -0.2457
     31  N         34.3480    0.7190   67.5950 N.am  168  GLU168     -0.1979
     32  CA        35.0380    1.9230   68.0420 C.3   168  GLU168      0.1602
     33  C         36.4550    1.8940   68.6090 C.2   168  GLU168      0.2287
     34  O         37.0830    2.9520   68.7130 O.2   168  GLU168     -0.2864
     35  CB        34.1310    2.6590   69.0210 C.3   168  GLU168      0.0415
     36  CG        32.6900    2.7490   68.5320 C.3   168  GLU168      0.1163
     37  CD        32.5200    3.6560   67.3200 C.2   168  GLU168      0.3649
     38  OE1       33.4950    3.8510   66.5570 O.co2 168  GLU168     -0.2457
     39  OE2       31.3970    4.1680   67.1240 O.co2 168  GLU168     -0.2457
     40  N         38.5310   -1.8860   65.6730 N.3   171  SER171     -0.1217
     41  CA        38.2170   -2.0110   64.2510 C.3   171  SER171      0.1889
     42  C         38.5390   -3.4240   63.7840 C.2   171  SER171      0.2288
     43  O         39.0140   -3.6370   62.6640 O.2   171  SER171     -0.2866
     44  CB        39.0110   -0.9970   63.4240 C.3   171  SER171      0.2089
     45  OG        38.4810    0.3080   63.5740 O.3   171  SER171     -0.2183
     46  N         41.7170    8.8610   66.9540 N.3   319  PHE319     -0.1241
     47  CA        40.5150    8.1130   67.3230 C.3   319  PHE319      0.1605
     48  C         40.8190    7.3620   68.6080 C.2   319  PHE319      0.2264
     49  O         39.9330    7.0780   69.4080 O.2   319  PHE319     -0.2867
     50  CB        40.1190    7.1310   66.2130 C.3   319  PHE319      0.0534
     51  CG        39.4740    7.7960   65.0280 C.ar  319  PHE319     -0.0203
     52  CD1       38.1760    8.3000   65.1210 C.ar  319  PHE319     -0.0042
     53  CD2       40.1830    7.9780   63.8420 C.ar  319  PHE319     -0.0042
     54  CE1       37.5900    8.9830   64.0480 C.ar  319  PHE319     -0.0003
     55  CE2       39.6120    8.6620   62.7590 C.ar  319  PHE319     -0.0003
     56  CZ        38.3100    9.1680   62.8620 C.ar  319  PHE319     -0.0000
     57  N         30.1130   14.8610   55.5130 N.3   509  TYR509     -0.1241
     58  CA        30.3540   13.8400   56.5200 C.3   509  TYR509      0.1605
     59  C         30.6490   14.7430   57.7240 C.2   509  TYR509      0.2264
     60  O         29.7960   14.9260   58.5920 O.2   509  TYR509     -0.2867
     61  CB        31.5610   12.9710   56.1680 C.3   509  TYR509      0.0534
     62  CG        31.7070   11.7840   57.1010 C.ar  509  TYR509     -0.0201
     63  CD1       30.7270   10.7850   57.1490 C.ar  509  TYR509     -0.0009
     64  CD2       32.8030   11.6730   57.9590 C.ar  509  TYR509     -0.0009
     65  CE1       30.8380    9.7070   58.0280 C.ar  509  TYR509      0.0417
     66  CE2       32.9230   10.6000   58.8440 C.ar  509  TYR509      0.0417
     67  CZ        31.9420    9.6210   58.8710 C.ar  509  TYR509      0.1957
     68  OH        32.0840    8.5430   59.7160 O.3   509  TYR509     -0.2866
     69  N         32.6630   14.5340   60.4210 N.3   511  GLY511     -0.1210
     70  CA        32.8080   14.0610   61.7810 C.3   511  GLY511      0.1940
     71  C         34.1880   14.4120   62.2920 C.2   511  GLY511      0.2453
     72  O         35.0820   14.6630   61.4800 O.2   511  GLY511     -0.2732
     73  N         34.4010   14.4650   63.6220 N.am  512  PRO512     -0.2728
     74  CA        35.7370   14.7980   64.1160 C.3   512  PRO512      0.1401
     75  C         36.8340   13.9570   63.4660 C.2   512  PRO512      0.2269
     76  O         36.7370   12.7300   63.3900 O.2   512  PRO512     -0.2865
     77  CB        35.6250   14.5880   65.6340 C.3   512  PRO512      0.0296
     78  CG        34.3160   13.8540   65.8400 C.3   512  PRO512      0.0237
     79  CD        33.4420   14.3550   64.7320 C.3   512  PRO512      0.0939
     80  N         25.1760    8.8550   57.8790 N.3   592  SER592     -0.1202
     81  CA        25.6630    8.6560   59.2570 C.3   592  SER592      0.2020
     82  C         26.0240   10.0070   59.8730 C.2   592  SER592      0.2618
     83  O         24.9390   10.8790   59.9540 O.2   592  SER592     -0.2717
     84  CB        26.8680    7.7240   59.2270 C.3   592  SER592      0.2103
     85  OG        27.0700    7.3210   60.5520 O.3   592  SER592     -0.2182
     86  N         27.2730   10.3010   60.2190 N.am  593  TYR593     -0.1975
     87  CA        27.5870   11.6170   60.7730 C.3   593  TYR593      0.1639
     88  C         27.1360   12.6660   59.7640 C.2   593  TYR593      0.2290
     89  O         26.6110   13.7120   60.1370 O.2   593  TYR593     -0.2864
     90  CB        29.0890   11.7840   61.0360 C.3   593  TYR593      0.0560
     91  CG        29.3820   12.8770   62.0520 C.ar  593  TYR593     -0.0198
     92  CD1       29.3160   14.2300   61.7090 C.ar  593  TYR593     -0.0009
     93  CD2       29.6300   12.5500   63.3920 C.ar  593  TYR593     -0.0009
     94  CE1       29.4810   15.2270   62.6800 C.ar  593  TYR593      0.0417
     95  CE2       29.7940   13.5320   64.3640 C.ar  593  TYR593      0.0417
     96  CZ        29.7170   14.8660   64.0130 C.ar  593  TYR593      0.1957
     97  OH        29.8530   15.8170   65.0110 O.3   593  TYR593     -0.2866
     98  N         22.3940   10.3130   62.9200 N.3   618  VAL618     -0.1245
     99  CA        22.2950   10.3500   64.3700 C.3   618  VAL618      0.1561
    100  C         21.3540   11.5490   64.5440 C.2   618  VAL618      0.2260
    101  O         21.4700   12.5360   63.8160 O.2   618  VAL618     -0.2867
    102  CB        23.6470   10.7030   65.0490 C.3   618  VAL618      0.0252
    103  CG1       23.4160   11.0160   66.5280 C.3   618  VAL618      0.0019
    104  CG2       24.6270    9.5490   64.9140 C.3   618  VAL618      0.0019
    105  N         22.8060   12.4750   70.4390 N.3   621  TRP621     -0.1241
    106  CA        23.9360   11.7080   70.9550 C.3   621  TRP621      0.1605
    107  C         23.6850   10.7100   72.0730 C.2   621  TRP621      0.2264
    108  O         24.5210    9.8480   72.3170 O.2   621  TRP621     -0.2867
    109  CB        25.0730   12.6590   71.3540 C.3   621  TRP621      0.0550
    110  CG        25.5980   13.3670   70.1600 C.ar  621  TRP621      0.0003
    111  CD1       25.4490   14.6970   69.8520 C.ar  621  TRP621      0.0946
    112  CD2       26.2260   12.7600   69.0240 C.ar  621  TRP621      0.0152
    113  NE1       25.9370   14.9460   68.5920 N.ar  621  TRP621     -0.2442
    114  CE2       26.4200   13.7760   68.0600 C.ar  621  TRP621      0.0810
    115  CE3       26.6380   11.4510   68.7230 C.ar  621  TRP621      0.0012
    116  CZ2       27.0090   13.5230   66.8140 C.ar  621  TRP621      0.0191
    117  CZ3       27.2230   11.2010   67.4860 C.ar  621  TRP621      0.0001
    118  CH2       27.4010   12.2350   66.5460 C.ar  621  TRP621      0.0015
    119  N         23.5350    7.1890   70.5080 N.3   624  TYR624     -0.1241
    120  CA        24.7090    6.5420   69.9230 C.3   624  TYR624      0.1605
    121  C         25.6560    5.8980   70.9460 C.2   624  TYR624      0.2264
    122  O         25.6160    6.2170   72.1300 O.2   624  TYR624     -0.2867
    123  CB        25.4600    7.5450   69.0220 C.3   624  TYR624      0.0534
    124  CG        26.3250    6.8530   68.0000 C.ar  624  TYR624     -0.0201
    125  CD1       25.7810    5.8980   67.1380 C.ar  624  TYR624     -0.0009
    126  CD2       27.7020    7.0440   67.9800 C.ar  624  TYR624     -0.0009
    127  CE1       26.5850    5.1410   66.3040 C.ar  624  TYR624      0.0417
    128  CE2       28.5240    6.2840   67.1330 C.ar  624  TYR624      0.0417
    129  CZ        27.9600    5.3320   66.3090 C.ar  624  TYR624      0.1957
    130  OH        28.7760    4.5350   65.5370 O.3   624  TYR624     -0.2866
    131  N         32.3910    6.1480   71.1740 N.3   628  TYR628     -0.1241
    132  CA        32.5330    7.2030   70.1870 C.3   628  TYR628      0.1605
    133  C         31.9860    8.5400   70.6610 C.2   628  TYR628      0.2264
    134  O         32.6680    9.5570   70.6000 O.2   628  TYR628     -0.2867
    135  CB        31.8520    6.8080   68.8700 C.3   628  TYR628      0.0534
    136  CG        31.9490    7.8970   67.8330 C.ar  628  TYR628     -0.0201
    137  CD1       31.0560    8.9690   67.8270 C.ar  628  TYR628     -0.0009
    138  CD2       32.9930    7.9090   66.9170 C.ar  628  TYR628     -0.0009
    139  CE1       31.2120   10.0270   66.9370 C.ar  628  TYR628      0.0417
    140  CE2       33.1570    8.9560   66.0300 C.ar  628  TYR628      0.0417
    141  CZ        32.2710   10.0110   66.0440 C.ar  628  TYR628      0.1957
    142  OH        32.4660   11.0490   65.1670 O.3   628  TYR628     -0.2866
    143  N         33.9120   10.2160   73.6220 N.3   631  ARG631     -0.1245
    144  CA        35.2370   10.6790   73.2480 C.3   631  ARG631      0.1563
    145  C         35.1940   12.1830   72.9590 C.2   631  ARG631      0.2260
    146  O         36.1270   12.9050   73.2770 O.2   631  ARG631     -0.2867
    147  CB        35.7240    9.9240   72.0060 C.3   631  ARG631      0.0307
    148  CG        37.1690   10.2150   71.6020 C.3   631  ARG631      0.0489
    149  CD        37.7940    8.9840   70.9570 C.3   631  ARG631      0.2205
    150  NE        37.2370    8.7210   69.6440 N.pl3 631  ARG631     -0.0865
    151  CZ        36.8420    7.5310   69.2090 C.cat 631  ARG631      0.5346
    152  NH1       36.9290    6.4550   69.9810 N.pl3 631  ARG631      0.1354
    153  NH2       36.3590    7.4210   67.9820 N.pl3 631  ARG631      0.1354
    154  N         24.3080   -0.1240   64.0380 N.3   672  ASN672     -0.1225
    155  CA        25.2270    0.9460   64.4130 C.3   672  ASN672      0.1785
    156  C         24.4300    2.1680   64.8440 C.2   672  ASN672      0.2597
    157  O         24.4210    2.5390   66.0250 O.2   672  ASN672     -0.2718
    158  CB        26.1100    1.3060   63.2220 C.3   672  ASN672      0.1169
    159  CG        27.3040    2.1140   63.6170 C.2   672  ASN672      0.2627
    160  OD1       27.2280    2.9470   64.5140 O.2   672  ASN672     -0.2716
    161  ND2       28.4220    1.8880   62.9410 N.am  672  ASN672     -0.0877
    162  N         23.7940    2.8040   63.8610 N.am  673  VAL673     -0.1980
    163  CA        22.9360    3.9620   64.0850 C.3   673  VAL673      0.1595
    164  C         21.5360    3.3770   63.9700 C.2   673  VAL673      0.2287
    165  O         21.0470    3.0600   62.8820 O.2   673  VAL673     -0.2864
    166  CB        23.1490    5.0380   63.0100 C.3   673  VAL673      0.0276
    167  CG1       22.2850    6.2470   63.3030 C.3   673  VAL673      0.0022
    168  CG2       24.6130    5.4390   62.9800 C.3   673  VAL673      0.0022
    169  N         23.4310   -0.4500   58.4070 N.3   702  HIS702     -0.1241
    170  CA        24.0730    0.8380   58.2140 C.3   702  HIS702      0.1621
    171  C         24.6450    1.0930   56.8260 C.2   702  HIS702      0.2264
    172  O         24.7360    2.2380   56.3860 O.2   702  HIS702     -0.2867
    173  CB        25.1740    1.0180   59.2520 C.3   702  HIS702      0.0745
    174  CG        25.6420    2.4320   59.3890 C.ar  702  HIS702      0.0817
    175  ND1       24.7920    3.4660   59.7170 N.ar  702  HIS702     -0.2268
    176  CD2       26.8720    2.9820   59.2600 C.ar  702  HIS702      0.1154
    177  CE1       25.4780    4.5920   59.7840 C.ar  702  HIS702      0.1986
    178  NE2       26.7430    4.3260   59.5110 N.ar  702  HIS702     -0.2212
@<TRIPOS>BOND
     1    57    58    1
     2    61    58    1
     3    61    62    1
     4   172   171    2
     5    58    59    1
     6   171   170    1
     7    62    63   ar
     8    62    64   ar
     9    63    65   ar
    10    59    60    2
    11    80    81    1
    12    64    66   ar
    13    65    67   ar
    14   170   169    1
    15   170   173    1
    16    10     9    1
    17     4     3    2
    18    66    67   ar
    19    67    68    1
    20    84    81    1
    21    84    85    1
    22   173   174    1
    23    81    82    1
    24   176   174   ar
    25   176   178   ar
    26   174   175   ar
    27   178   177   ar
    28     6     7    1
    29     6     5    1
    30   175   177   ar
    31    88    89    2
    32    88    87    1
    33     9    11    1
    34     9     8    2
    35    82    83    2
    36    82    86   am
    37     3     2    1
    38     3    12   am
    39     7     8    1
    40    86    87    1
    41     2     5    1
    42     2     1    1
    43    69    70    1
    44    15    14    2
    45    18    20   ar
    46    18    17   ar
    47    20    21   ar
    48    87    90    1
    49    13    12    1
    50    13    14    1
    51    13    16    1
    52    90    91    1
    53    72    71    2
    54    17    16    1
    55    17    19   ar
    56    92    91   ar
    57    92    94   ar
    58    70    71    1
    59    21    19   ar
    60    91    93   ar
    61    71    73   am
    62    43    42    2
    63    94    96   ar
    64    55    56   ar
    65    55    53   ar
    66    56    54   ar
    67   165   164    2
    68    98    99    1
    69   161   159   am
    70   168   166    1
    71   166   167    1
    72   166   163    1
    73    30    28   ar
    74   158   159    1
    75   158   155    1
    76    29    28   ar
    77    76    75    2
    78    93    95   ar
    79    44    45    1
    80    44    41    1
    81    75    74    1
    82   159   160    2
    83    73    74    1
    84    73    79    1
    85    28    27    1
    86    42    41    1
    87   101   100    2
    88    53    51   ar
    89   162   163    1
    90   162   156   am
    91   164   163    1
    92    96    95   ar
    93    96    97    1
    94   154   155    1
    95    54    52   ar
    96    74    77    1
    97    41    40    1
    98    99   100    1
    99    99   102    1
   100   155   156    1
   101    79    78    1
   102   156   157    2
   103   104   102    1
   104    51    52   ar
   105    51    50    1
   106   102   103    1
   107   142   141    1
   108    27    26    1
   109    25    24    2
   110   130   129    1
   111    77    78    1
   112    23    26    1
   113    23    24    1
   114    23    22    1
   115   140   141   ar
   116   140   138   ar
   117   141   139   ar
   118    50    47    1
   119    24    31   am
   120   127   129   ar
   121   127   125   ar
   122   129   128   ar
   123   118   116   ar
   124   118   117   ar
   125    38    37   ar
   126   116   114   ar
   127   138   136   ar
   128   139   137   ar
   129    46    47    1
   130    39    37   ar
   131   128   126   ar
   132   125   124   ar
   133    37    36    1
   134    47    48    1
   135   117   115   ar
   136    31    32    1
   137   137   136   ar
   138   136   135    1
   139   126   124   ar
   140   153   151    1
   141   124   123    1
   142    32    33    1
   143    32    35    1
   144   114   113   ar
   145   114   112   ar
   146    36    35    1
   147   113   111   ar
   148    48    49    2
   149    33    34    2
   150   115   112   ar
   151   135   132    1
   152   123   120    1
   153   112   110   ar
   154   151   150    2
   155   151   152    1
   156   150   149    1
   157   111   110   ar
   158   120   119    1
   159   120   121    1
   160   110   109    1
   161   132   133    1
   162   132   131    1
   163   105   106    1
   164   134   133    2
   165   121   122    2
   166   106   109    1
   167   106   107    1
   168   149   148    1
   169   148   147    1
   170   147   144    1
   171   107   108    2
   172   145   144    1
   173   145   146    2
   174   144   143    1
