@<TRIPOS>MOLECULE
tmp/2i04A00.pdb
 146 143 0 0 0
SMALL
GASTEIGER

@<TRIPOS>ATOM
      1  N         -1.2500   -5.1860    8.8500 N.3     8  LYS8       -0.1245
      2  CA        -1.0630   -5.3270    7.4060 C.3     8  LYS8        0.1561
      3  C         -2.3560   -5.1360    6.6100 C.2     8  LYS8        0.2260
      4  O         -3.3400   -5.8370    6.8340 O.2     8  LYS8       -0.2867
      5  CB        -0.4650   -6.7060    7.0870 C.3     8  LYS8        0.0271
      6  CG        -0.4730   -7.0620    5.6040 C.3     8  LYS8        0.0035
      7  CD         0.3420   -6.0740    4.7840 C.3     8  LYS8        0.0206
      8  CE         1.5250   -6.7350    4.1130 C.3     8  LYS8        0.1093
      9  NZ         1.1360   -7.8660    3.2250 N.3     8  LYS8       -0.1314
     10  N         -3.2610   -2.7110    1.0000 N.3    11  ARG11      -0.1231
     11  CA        -2.4410   -1.6630    0.4050 C.3    11  ARG11       0.1694
     12  C         -1.0240   -1.6700    0.9850 C.2    11  ARG11       0.2593
     13  O         -0.1930   -0.8410    0.6160 O.2    11  ARG11      -0.2718
     14  CB        -3.0890   -0.3050    0.6600 C.3    11  ARG11       0.0321
     15  CG        -4.5770   -0.2630    0.3500 C.3    11  ARG11       0.0489
     16  CD        -5.2460    0.7580    1.2440 C.3    11  ARG11       0.2205
     17  NE        -4.6670    0.6880    2.5850 N.pl3  11  ARG11      -0.0865
     18  CZ        -5.3160    0.9820    3.7050 C.cat  11  ARG11       0.5346
     19  NH1       -6.5810    1.3730    3.6550 N.pl3  11  ARG11       0.1354
     20  NH2       -4.7000    0.8770    4.8760 N.pl3  11  ARG11       0.1354
     21  N         -0.5310   -2.6980    1.9570 N.am   12  GLY12      -0.1942
     22  CA         0.7690   -2.8080    2.5980 C.3    12  GLY12       0.2014
     23  C          0.8250   -2.1610    3.9770 C.2    12  GLY12       0.2639
     24  O         -0.2050   -1.9720    4.6410 O.2    12  GLY12      -0.2714
     25  N          2.0320   -1.8210    4.4160 N.am   13  PHE13      -0.1959
     26  CA         2.2250   -1.1890    5.7200 C.3    13  PHE13       0.1771
     27  C          2.3050    0.3360    5.6750 C.2    13  PHE13       0.2620
     28  O          2.3090    0.9870    6.7260 O.2    13  PHE13      -0.2715
     29  CB         3.4780   -1.7460    6.4070 C.3    13  PHE13       0.0574
     30  CG         3.3350   -3.1750    6.8520 C.ar   13  PHE13      -0.0200
     31  CD1        4.0450   -4.1910    6.2200 C.ar   13  PHE13      -0.0042
     32  CD2        2.4640   -3.5070    7.8890 C.ar   13  PHE13      -0.0042
     33  CE1        3.8910   -5.5210    6.6140 C.ar   13  PHE13      -0.0003
     34  CE2        2.2990   -4.8330    8.2910 C.ar   13  PHE13      -0.0003
     35  CZ         3.0130   -5.8420    7.6530 C.ar   13  PHE13      -0.0000
     36  N          2.3900    0.9070    4.4730 N.am   14  GLY14      -0.1940
     37  CA         2.4270    2.3570    4.3590 C.3    14  GLY14       0.2014
     38  C          3.7770    3.0570    4.4760 C.2    14  GLY14       0.2639
     39  O          3.8410    4.2540    4.7790 O.2    14  GLY14      -0.2714
     40  N          4.8640    2.3280    4.2560 N.am   15  PHE15      -0.1959
     41  CA         6.1760    2.9500    4.2780 C.3    15  PHE15       0.1771
     42  C          7.0280    2.2740    3.2150 C.2    15  PHE15       0.2620
     43  O          6.6910    1.1870    2.7350 O.2    15  PHE15      -0.2715
     44  CB         6.8320    2.8470    5.6730 C.3    15  PHE15       0.0574
     45  CG         7.0670    1.4380    6.1490 C.ar   15  PHE15      -0.0200
     46  CD1        6.0500    0.7120    6.7530 C.ar   15  PHE15      -0.0042
     47  CD2        8.3200    0.8540    6.0200 C.ar   15  PHE15      -0.0042
     48  CE1        6.2790   -0.5790    7.2150 C.ar   15  PHE15      -0.0003
     49  CE2        8.5590   -0.4390    6.4780 C.ar   15  PHE15      -0.0003
     50  CZ         7.5340   -1.1550    7.0820 C.ar   15  PHE15      -0.0000
     51  N          8.1000    2.9500    2.8210 N.am   16  THR16      -0.1937
     52  CA         9.0490    2.4440    1.8310 C.3    16  THR16       0.2028
     53  C         10.3860    2.3280    2.5490 C.2    16  THR16       0.2642
     54  O         10.6200    3.0160    3.5420 O.2    16  THR16      -0.2714
     55  CB         9.2600    3.4310    0.6540 C.3    16  THR16       0.1808
     56  OG1        9.9120    4.6160    1.1370 O.3    16  THR16      -0.2208
     57  CG2        7.9270    3.8080    0.0110 C.3    16  THR16       0.0379
     58  N         11.2600    1.4670    2.0410 N.am   17  VAL17      -0.1963
     59  CA        12.5690    1.2590    2.6450 C.3    17  VAL17       0.1727
     60  C         13.6980    1.4350    1.6180 C.2    17  VAL17       0.2616
     61  O         13.4780    1.2710    0.4150 O.2    17  VAL17      -0.2715
     62  CB        12.6370   -0.1560    3.2830 C.3    17  VAL17       0.0290
     63  CG1       11.5370   -0.3110    4.3310 C.3    17  VAL17       0.0023
     64  CG2       12.4720   -1.2290    2.2200 C.3    17  VAL17       0.0023
     65  N         14.9180    1.9570    2.0430 N.am   18  VAL18      -0.1963
     66  CA        16.1330    2.0710    1.2190 C.3    18  VAL18       0.1727
     67  C         17.2700    1.3840    1.9750 C.2    18  VAL18       0.2617
     68  O         17.2070    1.2510    3.1930 O.2    18  VAL18      -0.2715
     69  CB        16.5580    3.5370    1.0130 C.3    18  VAL18       0.0290
     70  CG1       17.0120    3.7560   -0.4060 C.3    18  VAL18       0.0023
     71  CG2       15.4420    4.4530    1.3600 C.3    18  VAL18       0.0023
     72  N         18.3260    1.0310    1.2400 N.am   19  GLY19      -0.1940
     73  CA        19.4940    0.4300    1.8630 C.3    19  GLY19       0.2014
     74  C         19.4810   -1.0880    1.7700 C.2    19  GLY19       0.2639
     75  O         18.7860   -1.6570    0.9330 O.2    19  GLY19      -0.2714
     76  N         20.2470   -1.7500    2.6280 N.am   20  GLY20      -0.1939
     77  CA        20.2900   -3.2010    2.5980 C.3    20  GLY20       0.2014
     78  C         21.0370   -3.6920    1.3770 C.2    20  GLY20       0.2638
     79  O         20.7450   -4.7560    0.8290 O.2    20  GLY20      -0.2714
     80  N         22.0010   -2.8890    0.9460 N.am   21  ASP21      -0.1971
     81  CA        22.8290   -3.2070   -0.2060 C.3    21  ASP21       0.1709
     82  C         23.4920   -4.5610   -0.0270 C.2    21  ASP21       0.2293
     83  O         23.1500   -5.5410   -0.6950 O.2    21  ASP21      -0.2864
     84  CB        23.8850   -2.1010   -0.4150 C.3    21  ASP21       0.1436
     85  CG        23.2570   -0.7480   -0.8130 C.2    21  ASP21       0.3671
     86  OD1       22.8610    0.0410    0.0720 O.co2  21  ASP21      -0.2456
     87  OD2       23.1260   -0.4840   -2.0290 O.co2  21  ASP21      -0.2456
     88  N         12.4710    5.4920    3.8310 N.3    30  LYS30      -0.1231
     89  CA        12.6160    6.6530    2.9430 C.3    30  LYS30       0.1693
     90  C         11.3960    7.5570    3.0430 C.2    30  LYS30       0.2592
     91  O         11.5110    8.7430    3.3480 O.2    30  LYS30      -0.2718
     92  CB        12.7880    6.2400    1.4740 C.3    30  LYS30       0.0285
     93  CG        13.2360    7.3920    0.5490 C.3    30  LYS30       0.0035
     94  CD        14.7690    7.4750    0.4540 C.3    30  LYS30       0.0206
     95  CE        15.2890    8.9080    0.3520 C.3    30  LYS30       0.1093
     96  NZ        16.7810    8.9470    0.2420 N.3    30  LYS30      -0.1314
     97  N         10.1850    6.8590    2.8570 N.am   31  SER31      -0.1952
     98  CA         8.9470    7.6230    2.8820 C.3    31  SER31       0.1924
     99  C          7.8040    6.9320    3.6190 C.2    31  SER31       0.2314
    100  O          7.7930    5.7100    3.7800 O.2    31  SER31      -0.2863
    101  CB         8.4890    7.9090    1.4490 C.3    31  SER31       0.2116
    102  OG         9.5210    8.5200    0.6920 O.3    31  SER31      -0.2180
    103  N          3.6270    6.5730    3.5520 N.3    33  VAL33      -0.1245
    104  CA         2.5320    6.7240    2.5920 C.3    33  VAL33       0.1561
    105  C          1.3140    7.4100    3.2060 C.2    33  VAL33       0.2260
    106  O          0.8560    7.0260    4.2800 O.2    33  VAL33      -0.2867
    107  CB         2.1070    5.3480    2.0360 C.3    33  VAL33       0.0252
    108  CG1        0.8380    5.4840    1.1850 C.3    33  VAL33       0.0019
    109  CG2        3.2400    4.7560    1.2170 C.3    33  VAL33       0.0019
    110  N         18.3000   -6.1800    1.4340 N.3    63  HIS63      -0.1241
    111  CA        17.0950   -5.4140    1.1180 C.3    63  HIS63       0.1621
    112  C         15.9500   -6.3520    0.7200 C.2    63  HIS63       0.2264
    113  O         14.8470   -6.2440    1.2440 O.2    63  HIS63      -0.2867
    114  CB        17.3980   -4.4580   -0.0390 C.3    63  HIS63       0.0745
    115  CG        16.3130   -3.4650   -0.3240 C.ar   63  HIS63       0.0817
    116  ND1       16.4040   -2.1400    0.0430 N.ar   63  HIS63      -0.2268
    117  CD2       15.1350   -3.5930   -0.9800 C.ar   63  HIS63       0.1154
    118  CE1       15.3330   -1.4930   -0.3770 C.ar   63  HIS63       0.1986
    119  NE2       14.5470   -2.3510   -1.0020 N.ar   63  HIS63      -0.2212
    120  N         12.2510   -7.1710    2.5560 N.3    67  VAL67      -0.1245
    121  CA        11.0380   -6.8940    1.8070 C.3    67  VAL67       0.1561
    122  C         10.1940   -8.1640    1.8260 C.2    67  VAL67       0.2260
    123  O          8.9720   -8.0930    1.9240 O.2    67  VAL67      -0.2867
    124  CB        11.3440   -6.5030    0.3380 C.3    67  VAL67       0.0252
    125  CG1       10.0590   -6.5410   -0.4960 C.3    67  VAL67       0.0019
    126  CG2       11.9630   -5.1130    0.2890 C.3    67  VAL67       0.0019
    127  N          8.2570   -8.5300    5.0950 N.3    70  PHE70      -0.1227
    128  CA         7.0570   -7.6950    5.1430 C.3    70  PHE70       0.1736
    129  C          5.9590   -8.2090    4.1900 C.2    70  PHE70       0.2595
    130  O          4.7760   -8.1420    4.5170 O.2    70  PHE70      -0.2718
    131  CB         7.3850   -6.2400    4.7840 C.3    70  PHE70       0.0547
    132  CG         8.2600   -5.5370    5.7860 C.ar   70  PHE70      -0.0202
    133  CD1        7.9360   -5.5210    7.1360 C.ar   70  PHE70      -0.0042
    134  CD2        9.3930   -4.8530    5.3680 C.ar   70  PHE70      -0.0042
    135  CE1        8.7330   -4.8290    8.0590 C.ar   70  PHE70      -0.0003
    136  CE2       10.1910   -4.1620    6.2780 C.ar   70  PHE70      -0.0003
    137  CZ         9.8560   -4.1520    7.6270 C.ar   70  PHE70      -0.0000
    138  N          6.1840   -8.6510    2.9820 N.am   71  GLN71      -0.1979
    139  CA         5.2520   -9.1400    1.9590 C.3    71  GLN71       0.1601
    140  C          4.6180  -10.4910    2.3250 C.2    71  GLN71       0.2287
    141  O          3.4910  -10.8000    1.9120 O.2    71  GLN71      -0.2864
    142  CB         5.9680   -9.2660    0.6030 C.3    71  GLN71       0.0394
    143  CG         5.8980   -8.0090   -0.2640 C.3    71  GLN71       0.0908
    144  CD         6.8530   -8.0250   -1.4530 C.2    71  GLN71       0.2608
    145  OE1        7.0830   -6.9890   -2.0840 O.2    71  GLN71      -0.2717
    146  NE2        7.4100   -9.1950   -1.7640 N.am   71  GLN71      -0.0878
@<TRIPOS>BOND
     1   145   144    2
     2    87    85   ar
     3   146   144   am
     4   144   143    1
     5   119   117   ar
     6   119   118   ar
     7   117   115   ar
     8    85    84    1
     9    85    86   ar
    10    83    82    2
    11   125   124    1
    12    84    81    1
    13    70    69    1
    14   118   116   ar
    15   115   114    1
    16   115   116   ar
    17   143   142    1
    18    81    82    1
    19    81    80    1
    20   114   111    1
    21    57    55    1
    22    96    95    1
    23   126   124    1
    24   124   121    1
    25    15    14    1
    26    15    16    1
    27    95    94    1
    28    11    14    1
    29    11    12    1
    30    11    10    1
    31    61    60    2
    32    94    93    1
    33    93    92    1
    34   142   139    1
    35    13    12    2
    36    55    56    1
    37    55    52    1
    38   102   101    1
    39   112   111    1
    40   112   113    2
    41    79    78    2
    42    75    74    2
    43    80    78   am
    44    12    21   am
    45    69    66    1
    46    69    71    1
    47   111   110    1
    48   108   107    1
    49   109   107    1
    50    66    67    1
    51    66    65    1
    52    72    73    1
    53    72    67   am
    54    16    17    1
    55    78    77    1
    56   101    98    1
    57    92    89    1
    58    60    65   am
    59    60    59    1
    60    74    73    1
    61    74    76   am
    62   121   122    1
    63   121   120    1
    64   122   123    2
    65    52    53    1
    66    52    51    1
    67   141   140    2
    68    21    22    1
    69   139   140    1
    70   139   138    1
    71    67    68    2
    72   107   104    1
    73    58    53   am
    74    58    59    1
    75    64    62    1
    76    53    54    2
    77    17    18    2
    78   104   105    1
    79   104   103    1
    80    77    76    1
    81    22    23    1
    82    59    62    1
    83    43    42    2
    84    51    42   am
    85    97    98    1
    86    97    90   am
    87    98    99    1
    88    89    90    1
    89    89    88    1
    90   138   129   am
    91    90    91    2
    92   105   106    2
    93    42    41    1
    94     9     8    1
    95    62    63    1
    96    99   100    2
    97    19    18    1
    98    18    20    1
    99    23    25   am
   100    23    24    2
   101     8     7    1
   102   129   130    2
   103   129   128    1
   104    40    41    1
   105    40    38   am
   106    41    44    1
   107    37    36    1
   108    37    38    1
   109    25    26    1
   110    36    27   am
   111    38    39    2
   112     7     6    1
   113   131   128    1
   114   131   132    1
   115   127   128    1
   116   134   132   ar
   117   134   136   ar
   118     6     5    1
   119    44    45    1
   120    27    26    1
   121    27    28    2
   122    26    29    1
   123   132   133   ar
   124    47    45   ar
   125    47    49   ar
   126    45    46   ar
   127    31    33   ar
   128    31    30   ar
   129   136   137   ar
   130    29    30    1
   131    49    50   ar
   132     3     4    2
   133     3     2    1
   134    33    35   ar
   135    46    48   ar
   136    30    32   ar
   137    50    48   ar
   138     5     2    1
   139   133   135   ar
   140     2     1    1
   141   137   135   ar
   142    35    34   ar
   143    32    34   ar
