@<TRIPOS>MOLECULE
tmp/2i04C00.pdb
 171 166 0 0 0
SMALL
GASTEIGER

@<TRIPOS>ATOM
      1  N         33.2950    2.1960   32.9730 N.3     8  LYS8       -0.1245
      2  CA        34.5680    2.3540   32.2910 C.3     8  LYS8        0.1561
      3  C         35.7560    2.1590   33.2270 C.2     8  LYS8        0.2260
      4  O         35.9100    2.8670   34.2170 O.2     8  LYS8       -0.2867
      5  CB        34.6400    3.7460   31.6420 C.3     8  LYS8        0.0271
      6  CG        35.9230    4.0500   30.8570 C.3     8  LYS8        0.0035
      7  CD        36.0620    3.1840   29.6110 C.3     8  LYS8        0.0206
      8  CE        37.2630    3.5880   28.7550 C.3     8  LYS8        0.1093
      9  NZ        37.1020    4.8940   28.0480 N.3     8  LYS8       -0.1314
     10  N         41.3290   -0.3130   31.8280 N.3    11  ARG11      -0.1231
     11  CA        41.6000   -1.3830   30.8650 C.3    11  ARG11       0.1694
     12  C         40.5430   -1.4250   29.7480 C.2    11  ARG11       0.2593
     13  O         40.6280   -2.2430   28.8330 O.2    11  ARG11      -0.2718
     14  CB        41.6120   -2.7340   31.5770 C.3    11  ARG11       0.0321
     15  CG        42.5810   -2.8300   32.7460 C.3    11  ARG11       0.0489
     16  CD        42.2810   -4.0630   33.5880 C.3    11  ARG11       0.2205
     17  NE        40.9500   -4.0030   34.1880 N.pl3  11  ARG11      -0.0865
     18  CZ        40.0440   -4.9710   34.0880 C.cat  11  ARG11       0.5346
     19  NH1       40.3270   -6.0750   33.4110 N.pl3  11  ARG11       0.1354
     20  NH2       38.8510   -4.8370   34.6570 N.pl3  11  ARG11       0.1354
     21  N         39.5400   -0.4850   29.9210 N.am   12  GLY12      -0.1942
     22  CA        38.4850   -0.4130   28.9250 C.3    12  GLY12       0.2014
     23  C         37.1670   -0.9960   29.4070 C.2    12  GLY12       0.2639
     24  O         36.9830   -1.2520   30.6030 O.2    12  GLY12      -0.2714
     25  N         36.1750   -1.3200   28.4720 N.am   13  PHE13      -0.1959
     26  CA        34.8580   -1.8630   28.7880 C.3    13  PHE13       0.1771
     27  C         34.8410   -3.3810   28.7070 C.2    13  PHE13       0.2620
     28  O         33.8550   -4.0140   29.0890 O.2    13  PHE13      -0.2715
     29  CB        33.7940   -1.3100   27.8360 C.3    13  PHE13       0.0574
     30  CG        33.4350    0.1280   28.0900 C.ar   13  PHE13      -0.0200
     31  CD1       33.7640    1.1090   27.1610 C.ar   13  PHE13      -0.0042
     32  CD2       32.7430    0.4960   29.2430 C.ar   13  PHE13      -0.0042
     33  CE1       33.4140    2.4340   27.3760 C.ar   13  PHE13      -0.0003
     34  CE2       32.3880    1.8170   29.4690 C.ar   13  PHE13      -0.0003
     35  CZ        32.7220    2.7930   28.5280 C.ar   13  PHE13      -0.0000
     36  N         36.0310   -3.8600   28.2020 N.am   14  GLY14      -0.1940
     37  CA        36.1170   -5.3070   28.1180 C.3    14  GLY14       0.2014
     38  C         35.5390   -5.9930   26.8940 C.2    14  GLY14       0.2639
     39  O         35.1290   -7.1480   26.9720 O.2    14  GLY14      -0.2714
     40  N         35.4720   -5.2970   25.7650 N.am   15  PHE15      -0.1959
     41  CA        34.9810   -5.9300   24.5520 C.3    15  PHE15       0.1771
     42  C         35.6330   -5.3060   23.3260 C.2    15  PHE15       0.2620
     43  O         36.1840   -4.2050   23.3990 O.2    15  PHE15      -0.2715
     44  CB        33.4390   -5.8670   24.4480 C.3    15  PHE15       0.0574
     45  CG        32.8760   -4.4850   24.2360 C.ar   15  PHE15      -0.0200
     46  CD1       32.6510   -3.6330   25.3130 C.ar   15  PHE15      -0.0042
     47  CD2       32.5340   -4.0550   22.9620 C.ar   15  PHE15      -0.0042
     48  CE1       32.0850   -2.3770   25.1260 C.ar   15  PHE15      -0.0003
     49  CE2       31.9690   -2.8000   22.7610 C.ar   15  PHE15      -0.0003
     50  CZ        31.7440   -1.9570   23.8480 C.ar   15  PHE15      -0.0000
     51  N         35.5910   -6.0350   22.2130 N.am   16  THR16      -0.1937
     52  CA        36.1690   -5.5780   20.9450 C.3    16  THR16       0.2028
     53  C         35.0410   -5.4030   19.9370 C.2    16  THR16       0.2642
     54  O         34.0110   -6.0780   20.0300 O.2    16  THR16      -0.2714
     55  CB        37.1510   -6.6140   20.3730 C.3    16  THR16       0.1808
     56  OG1       36.4260   -7.8020   20.0370 O.3    16  THR16      -0.2208
     57  CG2       38.2270   -6.9650   21.3970 C.3    16  THR16       0.0379
     58  N         35.0810   -4.5440   19.0570 N.am   17  VAL17      -0.1963
     59  CA        34.1090   -4.3390   17.9900 C.3    17  VAL17       0.1727
     60  C         34.7310   -4.4850   16.6110 C.2    17  VAL17       0.2616
     61  O         35.9230   -4.1990   16.4220 O.2    17  VAL17      -0.2715
     62  CB        33.4680   -2.9370   18.0720 C.3    17  VAL17       0.0290
     63  CG1       32.5510   -2.8540   19.2880 C.3    17  VAL17       0.0023
     64  CG2       34.5530   -1.8650   18.1570 C.3    17  VAL17       0.0023
     65  N         33.8950   -4.7960   15.6350 N.am   18  VAL18      -0.1963
     66  CA        34.2100   -4.9350   14.2150 C.3    18  VAL18       0.1727
     67  C         33.1130   -4.2460   13.3970 C.2    18  VAL18       0.2616
     68  O         32.0550   -3.9120   13.9320 O.2    18  VAL18      -0.2715
     69  CB        34.2750   -6.4150   13.7750 C.3    18  VAL18       0.0290
     70  CG1       35.6130   -7.0140   14.1330 C.3    18  VAL18       0.0023
     71  CG2       33.1660   -7.1950   14.4260 C.3    18  VAL18       0.0023
     72  N         33.3730   -4.0390   12.1070 N.am   19  GLY19      -0.1955
     73  CA        32.4020   -3.4020   11.2340 C.3    19  GLY19       0.1869
     74  C         32.5610   -1.8980   11.1550 C.2    19  GLY19       0.2309
     75  O         33.5580   -1.3540   11.6120 O.2    19  GLY19      -0.2863
     76  N         33.1820   -0.1290    8.6260 N.3    21  ASP21      -0.1239
     77  CA        34.2510    0.2230    7.6920 C.3    21  ASP21       0.1674
     78  C         33.8270    1.2530    6.6390 C.2    21  ASP21       0.2266
     79  O         34.6580    1.8080    5.9270 O.2    21  ASP21      -0.2867
     80  CB        34.7900   -1.0490    7.0310 C.3    21  ASP21       0.1410
     81  CG        35.4320   -1.9940    8.0370 C.2    21  ASP21       0.3668
     82  OD1       35.0660   -3.1870    8.0560 O.co2  21  ASP21      -0.2456
     83  OD2       36.3040   -1.5410    8.8110 O.co2  21  ASP21      -0.2456
     84  N         27.6120    0.2180    6.8620 N.3    25  GLU25      -0.1231
     85  CA        27.7000   -1.0270    7.6140 C.3    25  GLU25       0.1699
     86  C         27.6820   -0.8510    9.1340 C.2    25  GLU25       0.2592
     87  O         28.4170   -0.0350    9.6930 O.2    25  GLU25      -0.2718
     88  CB        28.9550   -1.7740    7.1710 C.3    25  GLU25       0.0402
     89  CG        29.8600   -0.9120    6.3070 C.3    25  GLU25       0.1161
     90  CD        30.3730   -1.6340    5.0820 C.2    25  GLU25       0.3649
     91  OE1       30.1520   -1.1380    3.9560 O.co2  25  GLU25      -0.2457
     92  OE2       31.0050   -2.6950    5.2420 O.co2  25  GLU25      -0.2457
     93  N         26.8360   -1.6420    9.7890 N.am   26  PHE26      -0.1976
     94  CA        26.6660   -1.6160   11.2420 C.3    26  PHE26       0.1639
     95  C         27.8410   -2.2670   11.9790 C.2    26  PHE26       0.2290
     96  O         28.6130   -3.0210   11.3930 O.2    26  PHE26      -0.2864
     97  CB        25.3590   -2.3370   11.6100 C.3    26  PHE26       0.0560
     98  CG        25.3240   -3.7750   11.1770 C.ar   26  PHE26      -0.0200
     99  CD1       26.0230   -4.7470   11.8900 C.ar   26  PHE26      -0.0042
    100  CD2       24.6360   -4.1530   10.0320 C.ar   26  PHE26      -0.0042
    101  CE1       26.0400   -6.0740   11.4650 C.ar   26  PHE26      -0.0003
    102  CE2       24.6460   -5.4770    9.5970 C.ar   26  PHE26      -0.0003
    103  CZ        25.3510   -6.4400   10.3170 C.ar   26  PHE26      -0.0000
    104  N         29.5420   -4.5860   15.2350 N.3    28  GLN28      -0.1245
    105  CA        29.2600   -5.7910   15.9950 C.3    28  GLN28       0.1566
    106  C         30.3090   -6.0270   17.0600 C.2    28  GLN28       0.2260
    107  O         31.4480   -5.5600   16.9420 O.2    28  GLN28      -0.2867
    108  CB        29.2650   -7.0090   15.0680 C.3    28  GLN28       0.0367
    109  CG        28.2320   -6.9760   13.9570 C.3    28  GLN28       0.0905
    110  CD        28.2850   -8.2240   13.1000 C.2    28  GLN28       0.2608
    111  OE1       29.0280   -8.2890   12.1220 O.2    28  GLN28      -0.2717
    112  NE2       27.5060   -9.2340   13.4810 N.am   28  GLN28      -0.0878
    113  N         32.9230   -8.2850   18.5330 N.3    30  LYS30      -0.1231
    114  CA        33.6860   -9.4260   18.0420 C.3    30  LYS30       0.1693
    115  C         34.0820  -10.3290   19.2140 C.2    30  LYS30       0.2592
    116  O         33.8990  -11.5430   19.1630 O.2    30  LYS30      -0.2718
    117  CB        34.9530   -8.9750   17.3090 C.3    30  LYS30       0.0285
    118  CG        35.6760  -10.1110   16.5730 C.3    30  LYS30       0.0035
    119  CD        35.1030  -10.3180   15.1670 C.3    30  LYS30       0.0206
    120  CE        34.5180  -11.7070   14.9710 C.3    30  LYS30       0.1093
    121  NZ        35.2160  -12.4370   13.8700 N.3    30  LYS30      -0.1314
    122  N         34.6130   -9.7350   20.2760 N.am   31  SER31      -0.1952
    123  CA        35.0310  -10.5240   21.4270 C.3    31  SER31       0.1924
    124  C         34.7920   -9.8560   22.7680 C.2    31  SER31       0.2314
    125  O         34.6520   -8.6390   22.8510 O.2    31  SER31      -0.2863
    126  CB        36.5200  -10.8570   21.3150 C.3    31  SER31       0.2116
    127  OG        36.7720  -11.6810   20.1920 O.3    31  SER31      -0.2180
    128  N         36.3810   -9.5790   26.7020 N.3    33  VAL33      -0.1245
    129  CA        37.6570   -9.7750   27.3740 C.3    33  VAL33       0.1561
    130  C         37.4760  -10.5130   28.6960 C.2    33  VAL33       0.2260
    131  O         36.5560  -10.2290   29.4490 O.2    33  VAL33      -0.2867
    132  CB        38.3590   -8.4270   27.6330 C.3    33  VAL33       0.0252
    133  CG1       39.7140   -8.6620   28.2880 C.3    33  VAL33       0.0019
    134  CG2       38.5170   -7.6730   26.3270 C.3    33  VAL33       0.0019
    135  N         33.3280    2.7240   12.1970 N.3    63  HIS63      -0.1241
    136  CA        34.0410    1.9960   13.2330 C.3    63  HIS63       0.1621
    137  C         34.8930    2.9990   14.0230 C.2    63  HIS63       0.2264
    138  O         35.0160    2.9010   15.2410 O.2    63  HIS63      -0.2867
    139  CB        34.9070    0.9470   12.5280 C.3    63  HIS63       0.0745
    140  CG        35.8610    0.2120   13.4120 C.ar   63  HIS63       0.0817
    141  ND1       35.6870   -1.1060   13.7680 N.ar   63  HIS63      -0.2268
    142  CD2       37.0620    0.5810   13.9300 C.ar   63  HIS63       0.1154
    143  CE1       36.7350   -1.5240   14.4570 C.ar   63  HIS63       0.1986
    144  NE2       37.5830   -0.5140   14.5650 N.ar   63  HIS63      -0.2212
    145  N         34.5400    3.9800   18.1140 N.3    67  VAL67      -0.1245
    146  CA        35.6720    3.7640   19.0060 C.3    67  VAL67       0.1561
    147  C         35.8840    5.0620   19.7810 C.2    67  VAL67       0.2260
    148  O         36.1230    5.0470   20.9890 O.2    67  VAL67      -0.2867
    149  CB        36.9630    3.4330   18.2210 C.3    67  VAL67       0.0252
    150  CG1       38.1810    3.5120   19.1560 C.3    67  VAL67       0.0019
    151  CG2       36.8540    2.0380   17.6120 C.3    67  VAL67       0.0019
    152  N         33.5420    5.5470   22.6190 N.3    70  PHE70      -0.1227
    153  CA        33.8280    4.6400   23.7270 C.3    70  PHE70       0.1736
    154  C         35.0690    5.0890   24.5090 C.2    70  PHE70       0.2595
    155  O         35.0910    5.0070   25.7350 O.2    70  PHE70      -0.2718
    156  CB        34.0260    3.1980   23.2440 C.3    70  PHE70       0.0547
    157  CG        32.7480    2.4700   22.9850 C.ar   70  PHE70      -0.0202
    158  CD1       31.7210    2.4910   23.9280 C.ar   70  PHE70      -0.0042
    159  CD2       32.5550    1.7730   21.7970 C.ar   70  PHE70      -0.0042
    160  CE1       30.5170    1.8320   23.6850 C.ar   70  PHE70      -0.0003
    161  CE2       31.3500    1.1090   21.5450 C.ar   70  PHE70      -0.0003
    162  CZ        30.3310    1.1390   22.4890 C.ar   70  PHE70      -0.0000
    163  N         36.1000    5.5520   23.8050 N.am   71  GLN71      -0.1979
    164  CA        37.3380    6.0110   24.4520 C.3    71  GLN71       0.1601
    165  C         37.1590    7.3970   25.0760 C.2    71  GLN71       0.2287
    166  O         38.0060    7.8690   25.8370 O.2    71  GLN71      -0.2864
    167  CB        38.4810    6.1100   23.4440 C.3    71  GLN71       0.0394
    168  CG        38.7700    4.8630   22.6410 C.3    71  GLN71       0.0908
    169  CD        39.9010    5.0950   21.6570 C.2    71  GLN71       0.2608
    170  OE1       39.9740    6.1500   21.0210 O.2    71  GLN71      -0.2717
    171  NE2       40.7780    4.1100   21.5130 N.am   71  GLN71      -0.0878
@<TRIPOS>BOND
     1    91    90   ar
     2    90    92   ar
     3    90    89    1
     4    79    78    2
     5    89    88    1
     6    78    77    1
     7    84    85    1
     8    80    77    1
     9    80    81    1
    10    88    85    1
    11    85    86    1
    12    77    76    1
    13    81    82   ar
    14    81    83   ar
    15    86    87    2
    16    86    93   am
    17   102   100   ar
    18   102   103   ar
    19    93    94    1
    20   100    98   ar
    21   103   101   ar
    22    74    73    1
    23    74    75    2
    24    98    97    1
    25    98    99   ar
    26    73    72    1
    27    94    97    1
    28    94    95    1
    29    96    95    2
    30   101    99   ar
    31    72    67   am
    32   111   110    2
    33   135   136    1
    34   139   136    1
    35   139   140    1
    36   110   112   am
    37   110   109    1
    38   136   137    1
    39    67    68    2
    40    67    66    1
    41   140   141   ar
    42   140   142   ar
    43   141   143   ar
    44    69    70    1
    45    69    66    1
    46    69    71    1
    47   121   120    1
    48   142   144   ar
    49   109   108    1
    50   137   138    2
    51    66    65    1
    52   143   144   ar
    53   120   119    1
    54   108   105    1
    55   119   118    1
    56   104   105    1
    57    65    60   am
    58   105   106    1
    59    61    60    2
    60   118   117    1
    61    60    59    1
    62   107   106    2
    63   117   114    1
    64   151   149    1
    65    59    62    1
    66    59    58    1
    67   114   113    1
    68   114   115    1
    69    62    64    1
    70    62    63    1
    71   145   146    1
    72   149   146    1
    73   149   150    1
    74   146   147    1
    75    58    53   am
    76   116   115    2
    77   115   122   am
    78   147   148    2
    79    53    54    2
    80    53    52    1
    81    56    55    1
    82   127   126    1
    83   122   123    1
    84    55    52    1
    85    55    57    1
    86    52    51    1
    87   170   169    2
    88   126   123    1
    89   123   124    1
    90   171   169   am
    91   161   159   ar
    92   161   162   ar
    93   169   168    1
    94   159   157   ar
    95    51    42   am
    96   162   160   ar
    97   152   153    1
    98   168   167    1
    99    49    47   ar
   100    49    50   ar
   101   124   125    2
   102    47    45   ar
   103   157   156    1
   104   157   158   ar
   105   156   153    1
   106    42    43    2
   107    42    41    1
   108   167   164    1
   109   160   158   ar
   110   153   154    1
   111   163   164    1
   112   163   154   am
   113    50    48   ar
   114    45    44    1
   115    45    46   ar
   116    44    41    1
   117   164   165    1
   118   154   155    2
   119    41    40    1
   120   165   166    2
   121    48    46   ar
   122    40    38   am
   123   134   132    1
   124   128   129    1
   125    38    39    2
   126    38    37    1
   127    31    33   ar
   128    31    30   ar
   129   129   132    1
   130   129   130    1
   131    33    35   ar
   132   132   133    1
   133    29    30    1
   134    29    26    1
   135     9     8    1
   136    30    32   ar
   137    37    36    1
   138    36    27   am
   139    25    26    1
   140    25    23   am
   141    35    34   ar
   142   130   131    2
   143    27    26    1
   144    27    28    2
   145     8     7    1
   146    13    12    2
   147    22    23    1
   148    22    21    1
   149    32    34   ar
   150    23    24    2
   151     7     6    1
   152    12    21   am
   153    12    11    1
   154     6     5    1
   155    11    14    1
   156    11    10    1
   157    14    15    1
   158     5     2    1
   159     2     1    1
   160     2     3    1
   161    15    16    1
   162     3     4    2
   163    19    18    1
   164    16    17    1
   165    18    17    2
   166    18    20    1
