@<TRIPOS>MOLECULE
tmp/2i0aB00.pdb
 121 113 0 0 0
SMALL
GASTEIGER

@<TRIPOS>ATOM
      1  N         19.3150   16.6440   15.2460 N.3     8  ARG8       -0.1245
      2  CA        18.6150   17.8560   15.6480 C.3     8  ARG8        0.1563
      3  C         17.5930   17.5360   16.7370 C.2     8  ARG8        0.2260
      4  O         16.8730   16.5350   16.6250 O.2     8  ARG8       -0.2867
      5  CB        17.9050   18.4830   14.4630 C.3     8  ARG8        0.0307
      6  CG        18.8440   19.0260   13.4240 C.3     8  ARG8        0.0489
      7  CD        18.0740   19.6780   12.3200 C.3     8  ARG8        0.2205
      8  NE        18.9510   20.2890   11.3270 N.pl3   8  ARG8       -0.0865
      9  CZ        18.5970   21.3000   10.5310 C.cat   8  ARG8        0.5346
     10  NH1       17.3760   21.8290   10.5960 N.pl3   8  ARG8        0.1354
     11  NH2       19.4710   21.7930    9.6670 N.pl3   8  ARG8        0.1354
     12  N         12.4530   22.6700   16.8630 N.3    23  LEU23      -0.1245
     13  CA        13.7550   22.5530   17.4980 C.3    23  LEU23       0.1561
     14  C         13.7300   23.1170   18.9060 C.2    23  LEU23       0.2260
     15  O         13.3000   24.2430   19.1040 O.2    23  LEU23      -0.2867
     16  CB        14.8000   23.3760   16.7430 C.3    23  LEU23       0.0270
     17  CG        15.3560   22.9060   15.4190 C.3    23  LEU23       0.0019
     18  CD1       16.1940   24.0130   14.8080 C.3    23  LEU23       0.0001
     19  CD2       16.1800   21.6470   15.6140 C.3    23  LEU23       0.0001
     20  N         15.8210   24.9820   21.0250 N.3    25  ASP25      -0.1239
     21  CA        16.9430   25.7940   20.5720 C.3    25  ASP25       0.1674
     22  C         17.4610   26.7700   21.6320 C.2    25  ASP25       0.2266
     23  O         16.9330   27.8730   21.8200 O.2    25  ASP25      -0.2867
     24  CB        16.5570   26.5450   19.2890 C.3    25  ASP25       0.1410
     25  CG        17.7440   27.1680   18.5950 C.2    25  ASP25       0.3668
     26  OD1       17.5670   27.6720   17.4600 O.co2  25  ASP25      -0.2456
     27  OD2       18.8600   27.1440   19.1710 O.co2  25  ASP25      -0.2456
     28  N         20.0590   28.4860   21.3970 N.3    27  GLY27      -0.1210
     29  CA        20.6140   29.6610   20.7210 C.3    27  GLY27       0.1956
     30  C         19.5950   30.7180   20.3040 C.2    27  GLY27       0.2612
     31  O         19.9640   31.7470   19.7380 O.2    27  GLY27      -0.2717
     32  N         18.3220   30.4670   20.5910 N.am   28  ALA28      -0.1965
     33  CA        17.2240   31.3400   20.1780 C.3    28  ALA28       0.1728
     34  C         16.6540   32.0440   21.3980 C.2    28  ALA28       0.2616
     35  O         16.1420   31.3830   22.3070 O.2    28  ALA28      -0.2715
     36  CB        16.1330   30.5150   19.4960 C.3    28  ALA28       0.0334
     37  N         16.7320   33.3730   21.4400 N.am   29  ASP29      -0.1957
     38  CA        16.1300   34.1190   22.5630 C.3    29  ASP29       0.1840
     39  C         14.6230   33.9210   22.6150 C.2    29  ASP29       0.2622
     40  O         14.0300   33.7800   23.6990 O.2    29  ASP29      -0.2715
     41  CB        16.3730   35.6230   22.4390 C.3    29  ASP29       0.1450
     42  CG        17.8260   36.0000   22.4870 C.2    29  ASP29       0.3671
     43  OD1       18.6570   35.2410   23.0270 O.co2  29  ASP29      -0.2456
     44  OD2       18.1250   37.1080   22.0050 O.co2  29  ASP29      -0.2456
     45  N         14.0190   33.9490   21.4280 N.am   30  ASP30      -0.1971
     46  CA        12.5800   33.9390   21.2510 C.3    30  ASP30       0.1709
     47  C         12.1510   32.7130   20.4470 C.2    30  ASP30       0.2293
     48  O         12.9630   32.0570   19.7820 O.2    30  ASP30      -0.2864
     49  CB        12.1410   35.2060   20.5010 C.3    30  ASP30       0.1436
     50  CG        12.3950   36.4920   21.2870 C.2    30  ASP30       0.3671
     51  OD1       12.6030   36.4360   22.5080 O.co2  30  ASP30      -0.2456
     52  OD2       12.3790   37.5750   20.6690 O.co2  30  ASP30      -0.2456
     53  N         10.1470   31.1010   17.3630 N.3    32  VAL32      -0.1245
     54  CA         9.8380   31.5030   15.9960 C.3    32  VAL32       0.1561
     55  C          9.1490   30.3350   15.2980 C.2    32  VAL32       0.2260
     56  O          9.7130   29.2400   15.1840 O.2    32  VAL32      -0.2867
     57  CB        11.1030   31.9030   15.1990 C.3    32  VAL32       0.0252
     58  CG1       10.7130   32.6300   13.9150 C.3    32  VAL32       0.0019
     59  CG2       12.0460   32.7710   16.0370 C.3    32  VAL32       0.0019
     60  N          7.8230   42.7930   13.9070 N.3    45  LYS45      -0.1245
     61  CA         9.1640   42.7120   14.4600 C.3    45  LYS45       0.1561
     62  C         10.0960   42.1710   13.3890 C.2    45  LYS45       0.2260
     63  O          9.6470   41.4960   12.4530 O.2    45  LYS45      -0.2867
     64  CB         9.1570   41.7730   15.6660 C.3    45  LYS45       0.0271
     65  CG        10.4320   41.7400   16.4900 C.3    45  LYS45       0.0035
     66  CD        10.2500   40.7740   17.6650 C.3    45  LYS45       0.0206
     67  CE        11.5250   40.5840   18.4600 C.3    45  LYS45       0.1093
     68  NZ        11.7560   41.6840   19.4310 N.3    45  LYS45      -0.1314
     69  N         13.7530   39.9560   13.1710 N.3    47  ILE47      -0.1231
     70  CA        14.7520   39.1750   13.9050 C.3    47  ILE47       0.1692
     71  C         15.8380   38.7220   12.9570 C.2    47  ILE47       0.2593
     72  O         15.5900   38.5040   11.7710 O.2    47  ILE47      -0.2718
     73  CB        14.1470   37.9930   14.6700 C.3    47  ILE47       0.0266
     74  CG1       13.4000   37.0310   13.7390 C.3    47  ILE47       0.0019
     75  CG2       13.2320   38.5130   15.7620 C.3    47  ILE47       0.0020
     76  CD1       13.0750   35.7010   14.4000 C.3    47  ILE47       0.0001
     77  N         17.0500   38.6300   13.4910 N.am   48  GLY48      -0.1942
     78  CA        18.2220   38.3900   12.6850 C.3    48  GLY48       0.2014
     79  C         19.0050   37.1720   13.1020 C.2    48  GLY48       0.2639
     80  O         19.1010   36.8330   14.2880 O.2    48  GLY48      -0.2714
     81  N         19.5930   36.5340   12.1040 N.am   49  GLY49      -0.1939
     82  CA        20.4940   35.4240   12.3170 C.3    49  GLY49       0.2014
     83  C         21.4790   35.3140   11.1760 C.2    49  GLY49       0.2638
     84  O         21.7820   36.3000   10.5010 O.2    49  GLY49      -0.2714
     85  N         21.9760   34.1020   10.9620 N.am   50  ILE50      -0.1977
     86  CA        22.8350   33.8240    9.8270 C.3    50  ILE50       0.1596
     87  C         22.0590   34.1370    8.5470 C.2    50  ILE50       0.2287
     88  O         20.9440   33.6560    8.3600 O.2    50  ILE50      -0.2864
     89  CB        23.3320   32.3550    9.8420 C.3    50  ILE50       0.0276
     90  CG1       24.3460   32.1550   10.9780 C.3    50  ILE50       0.0022
     91  CG2       23.9410   31.9530    8.4850 C.3    50  ILE50       0.0022
     92  CD1       24.6340   30.7230   11.2970 C.3    50  ILE50       0.0001
     93  N         10.1950   31.5110    8.6360 N.3    80  THR80      -0.1204
     94  CA        11.3210   30.7270    9.0920 C.3    80  THR80       0.1979
     95  C         11.2560   29.3580    8.4170 C.2    80  THR80       0.2460
     96  O         10.1710   28.8220    8.2050 O.2    80  THR80      -0.2732
     97  CB        11.3450   30.5810   10.6400 C.3    80  THR80       0.1783
     98  OG1       12.4370   29.7420   11.0170 O.3    80  THR80      -0.2211
     99  CG2       10.0330   29.9860   11.2030 C.3    80  THR80       0.0376
    100  N         12.4180   28.8000    8.0390 N.am   81  PRO81      -0.2717
    101  CA        12.4140   27.4480    7.4650 C.3    81  PRO81       0.1535
    102  C         12.1300   26.3250    8.4660 C.2    81  PRO81       0.2598
    103  O         11.8060   25.2030    8.0590 O.2    81  PRO81      -0.2715
    104  CB        13.8300   27.3060    6.8960 C.3    81  PRO81       0.0310
    105  CG        14.6580   28.2180    7.7170 C.3    81  PRO81       0.0237
    106  CD        13.7720   29.3840    8.0710 C.3    81  PRO81       0.0939
    107  N         12.2760   26.6200    9.7550 N.am   82  VAL82      -0.1978
    108  CA        12.0940   25.6290   10.8090 C.3    82  VAL82       0.1596
    109  C         11.3830   26.2570   12.0040 C.2    82  VAL82       0.2287
    110  O         11.5750   27.4430   12.3050 O.2    82  VAL82      -0.2864
    111  CB        13.4570   25.0380   11.2520 C.3    82  VAL82       0.0276
    112  CG1       14.1670   24.4020   10.0720 C.3    82  VAL82       0.0022
    113  CG2       14.3360   26.1040   11.8890 C.3    82  VAL82       0.0022
    114  N         11.0880   26.9470   15.7830 N.3    84  ILE84      -0.1245
    115  CA        12.1550   27.1470   16.7690 C.3    84  ILE84       0.1561
    116  C         11.5400   27.4560   18.1280 C.2    84  ILE84       0.2260
    117  O         10.8540   28.4700   18.2860 O.2    84  ILE84      -0.2867
    118  CB        13.0780   28.3200   16.3560 C.3    84  ILE84       0.0252
    119  CG1       13.8510   27.9540   15.0830 C.3    84  ILE84       0.0019
    120  CG2       14.0520   28.6900   17.4970 C.3    84  ILE84       0.0019
    121  CD1       14.4270   29.1290   14.3580 C.3    84  ILE84       0.0001
@<TRIPOS>BOND
     1   104   101    1
     2   104   105    1
     3   101   100    1
     4   101   102    1
     5   105   106    1
     6   100   106    1
     7   100    95   am
     8   103   102    2
     9    96    95    2
    10    88    87    2
    11    95    94    1
    12   102   107   am
    13    91    89    1
    14    87    86    1
    15    93    94    1
    16    94    97    1
    17    11     9    1
    18   107   108    1
    19    86    89    1
    20    86    85    1
    21    89    90    1
    22   112   111    1
    23    84    83    2
    24     9    10    1
    25     9     8    2
    26    97    98    1
    27    97    99    1
    28   108   111    1
    29   108   109    1
    30    85    83   am
    31    90    92    1
    32    83    82    1
    33   111   113    1
    34     8     7    1
    35    72    71    2
    36   109   110    2
    37    81    82    1
    38    81    79   am
    39     7     6    1
    40    63    62    2
    41    78    79    1
    42    78    77    1
    43    71    77   am
    44    71    70    1
    45    79    80    2
    46    69    70    1
    47    62    61    1
    48     6     5    1
    49    74    76    1
    50    74    73    1
    51    70    73    1
    52    60    61    1
    53    58    57    1
    54   121   119    1
    55    61    64    1
    56     5     2    1
    57    73    75    1
    58    18    17    1
    59   119   118    1
    60    56    55    2
    61    57    54    1
    62    57    59    1
    63     1     2    1
    64    55    54    1
    65    17    19    1
    66    17    16    1
    67     2     3    1
    68    64    65    1
    69   114   115    1
    70    54    53    1
    71   118   115    1
    72   118   120    1
    73    65    66    1
    74     4     3    2
    75    16    13    1
    76   115   116    1
    77    12    13    1
    78    26    25   ar
    79    13    14    1
    80    66    67    1
    81   116   117    2
    82    67    68    1
    83    25    27   ar
    84    25    24    1
    85    14    15    2
    86    24    21    1
    87    36    33    1
    88    31    30    2
    89    48    47    2
    90    33    32    1
    91    33    34    1
    92    30    32   am
    93    30    29    1
    94    47    46    1
    95    49    46    1
    96    49    50    1
    97    21    20    1
    98    21    22    1
    99    52    50   ar
   100    29    28    1
   101    46    45    1
   102    50    51   ar
   103    34    37   am
   104    34    35    2
   105    45    39   am
   106    37    38    1
   107    22    23    2
   108    44    42   ar
   109    41    42    1
   110    41    38    1
   111    42    43   ar
   112    38    39    1
   113    39    40    2
