@<TRIPOS>MOLECULE
tmp/2i0dA00.pdb
 123 116 0 0 0
SMALL
GASTEIGER

@<TRIPOS>ATOM
      1  N         20.7410   33.9620   28.0520 N.3     8  ARG8       -0.1245
      2  CA        21.5230   33.3630   26.9740 C.3     8  ARG8        0.1563
      3  C         22.6240   32.4360   27.4950 C.2     8  ARG8        0.2260
      4  O         23.4120   32.8230   28.3540 O.2     8  ARG8       -0.2867
      5  CB        22.1970   34.4500   26.1430 C.3     8  ARG8        0.0307
      6  CG        21.3140   35.1500   25.1480 C.3     8  ARG8        0.0489
      7  CD        22.0220   36.3900   24.6440 C.3     8  ARG8        0.2205
      8  NE        21.1400   37.3440   23.9630 N.pl3   8  ARG8       -0.0865
      9  CZ        21.0630   37.5050   22.6390 C.cat   8  ARG8        0.5346
     10  NH1       21.7670   36.7210   21.8080 N.pl3   8  ARG8        0.1354
     11  NH2       20.2430   38.4300   22.1420 N.pl3   8  ARG8        0.1354
     12  N         27.8520   31.3740   22.1430 N.3    23  LEU23      -0.1245
     13  CA        26.5040   30.9830   22.5120 C.3    23  LEU23       0.1561
     14  C         26.3050   29.5020   22.2410 C.2    23  LEU23       0.2260
     15  O         26.5310   29.0240   21.1220 O.2    23  LEU23      -0.2867
     16  CB        25.5090   31.7930   21.6720 C.3    23  LEU23       0.0270
     17  CG        24.0240   31.6060   21.9580 C.3    23  LEU23       0.0019
     18  CD1       23.6880   32.2170   23.2820 C.3    23  LEU23       0.0001
     19  CD2       23.1910   32.2160   20.8200 C.3    23  LEU23       0.0001
     20  N         24.2910   26.7680   21.1690 N.3    25  ASP25      -0.1239
     21  CA        23.2210   26.9130   20.1910 C.3    25  ASP25       0.1674
     22  C         22.7380   25.5600   19.6320 C.2    25  ASP25       0.2266
     23  O         23.1740   25.1080   18.5650 O.2    25  ASP25      -0.2867
     24  CB        23.7250   27.7830   19.0370 C.3    25  ASP25       0.1410
     25  CG        22.6030   28.2520   18.1160 C.2    25  ASP25       0.3668
     26  OD1       21.4860   27.6760   18.1610 O.co2  25  ASP25      -0.2456
     27  OD2       22.8470   29.1970   17.3330 O.co2  25  ASP25      -0.2456
     28  N         20.0610   24.8480   18.1460 N.3    27  GLY27      -0.1210
     29  CA        19.4400   25.0010   16.8170 C.3    27  GLY27       0.1956
     30  C         20.4060   25.2130   15.6500 C.2    27  GLY27       0.2612
     31  O         19.9810   25.4300   14.5190 O.2    27  GLY27      -0.2717
     32  N         21.7020   25.1270   15.9180 N.am   28  ALA28      -0.1965
     33  CA        22.7230   25.3230   14.9120 C.3    28  ALA28       0.1728
     34  C         23.4320   23.9920   14.6370 C.2    28  ALA28       0.2616
     35  O         23.9680   23.3780   15.5540 O.2    28  ALA28      -0.2715
     36  CB        23.7190   26.3690   15.3880 C.3    28  ALA28       0.0334
     37  N         23.3860   23.5260   13.3920 N.am   29  ASP29      -0.1957
     38  CA        24.1230   22.3170   13.0110 C.3    29  ASP29       0.1840
     39  C         25.6110   22.5450   13.2450 C.2    29  ASP29       0.2622
     40  O         26.3500   21.6410   13.6600 O.2    29  ASP29      -0.2715
     41  CB        23.9480   21.9860   11.5290 C.3    29  ASP29       0.1450
     42  CG        22.5350   21.5470   11.1500 C.2    29  ASP29       0.3671
     43  OD1       21.6670   21.2900   12.0250 O.co2  29  ASP29      -0.2456
     44  OD2       22.3210   21.4550    9.9230 O.co2  29  ASP29      -0.2456
     45  N         26.0500   23.7510   12.9000 N.am   30  ASP30      -0.1971
     46  CA        27.4670   24.0630   12.7490 C.3    30  ASP30       0.1709
     47  C         27.8960   25.2050   13.6510 C.2    30  ASP30       0.2293
     48  O         27.1430   26.1470   13.8880 O.2    30  ASP30      -0.2864
     49  CB        27.7730   24.4600   11.3090 C.3    30  ASP30       0.1436
     50  CG        27.4450   23.3710   10.3220 C.2    30  ASP30       0.3671
     51  OD1       27.8220   22.2070   10.5790 O.co2  30  ASP30      -0.2456
     52  OD2       26.8120   23.6980    9.2890 O.co2  30  ASP30      -0.2456
     53  N         29.8900   28.4160   14.1180 N.3    32  VAL32      -0.1245
     54  CA        30.2580   29.5400   13.2840 C.3    32  VAL32       0.1561
     55  C         30.7640   30.6640   14.1820 C.2    32  VAL32       0.2260
     56  O         30.0380   31.1040   15.0760 O.2    32  VAL32      -0.2867
     57  CB        29.0410   30.0490   12.4730 C.3    32  VAL32       0.0252
     58  CG1       29.5130   30.9630   11.3680 C.3    32  VAL32       0.0019
     59  CG2       28.2450   28.8760   11.9040 C.3    32  VAL32       0.0019
     60  N         26.6490   28.9240    3.8440 N.3    47  ILE47      -0.1231
     61  CA        25.6800   28.3540    4.7810 C.3    47  ILE47       0.1692
     62  C         24.4370   29.2360    4.8950 C.2    47  ILE47       0.2593
     63  O         24.5030   30.4510    4.7340 O.2    47  ILE47      -0.2718
     64  CB        26.2910   28.0920    6.1770 C.3    47  ILE47       0.0266
     65  CG1       26.7140   29.4030    6.8650 C.3    47  ILE47       0.0019
     66  CG2       27.4960   27.1660    6.0670 C.3    47  ILE47       0.0020
     67  CD1       27.2210   29.2350    8.2650 C.3    47  ILE47       0.0001
     68  N         23.3050   28.5990    5.1800 N.am   48  GLY48      -0.1942
     69  CA        22.0280   29.2860    5.3130 C.3    48  GLY48       0.2014
     70  C         21.7650   29.6640    6.7530 C.2    48  GLY48       0.2639
     71  O         22.3270   29.0780    7.6710 O.2    48  GLY48      -0.2714
     72  N         20.9120   30.6600    6.9390 N.am   49  GLY49      -0.1939
     73  CA        20.3580   30.9740    8.2310 C.3    49  GLY49       0.2014
     74  C         18.9820   31.5770    8.0170 C.2    49  GLY49       0.2638
     75  O         18.4220   31.5490    6.9070 O.2    49  GLY49      -0.2714
     76  N         18.4680   32.1520    9.0890 N.am   50  ILE50      -0.1977
     77  CA        17.1220   32.6860    9.1110 C.3    50  ILE50       0.1596
     78  C         16.9780   33.8580    8.1350 C.2    50  ILE50       0.2287
     79  O         15.8910   34.1220    7.6270 O.2    50  ILE50      -0.2864
     80  CB        16.7410   33.0920   10.5530 C.3    50  ILE50       0.0276
     81  CG1       15.2260   32.9830   10.7570 C.3    50  ILE50       0.0022
     82  CG2       17.2410   34.4810   10.8860 C.3    50  ILE50       0.0022
     83  CD1       14.7830   33.4300   12.1300 C.3    50  ILE50       0.0001
     84  N         21.6700   33.4700    3.0780 N.3    53  PHE53      -0.1241
     85  CA        22.8650   32.6480    3.0100 C.3    53  PHE53       0.1605
     86  C         24.1060   33.5250    3.0380 C.2    53  PHE53       0.2264
     87  O         24.0880   34.6120    2.4920 O.2    53  PHE53      -0.2867
     88  CB        22.8450   31.8200    1.7350 C.3    53  PHE53       0.0534
     89  CG        22.0710   30.5410    1.8700 C.ar   53  PHE53      -0.0203
     90  CD1       20.6970   30.5670    2.0410 C.ar   53  PHE53      -0.0042
     91  CD2       22.7220   29.3200    1.8390 C.ar   53  PHE53      -0.0042
     92  CE1       19.9890   29.3990    2.1640 C.ar   53  PHE53      -0.0003
     93  CE2       22.0170   28.1500    1.9620 C.ar   53  PHE53      -0.0003
     94  CZ        20.6580   28.1870    2.1280 C.ar   53  PHE53      -0.0000
     95  N         28.5290   35.7180   10.9900 N.3    80  THR80      -0.1204
     96  CA        27.5100   35.3740   11.9760 C.3    80  THR80       0.1979
     97  C         27.2910   36.5530   12.9340 C.2    80  THR80       0.2460
     98  O         28.2400   37.2690   13.2980 O.2    80  THR80      -0.2732
     99  CB        27.9100   34.1010   12.7360 C.3    80  THR80       0.1783
    100  OG1       26.9030   33.7670   13.6920 O.3    80  THR80      -0.2211
    101  CG2       29.2570   34.2680   13.4320 C.3    80  THR80       0.0376
    102  N         26.0310   36.7860   13.3290 N.am   81  PRO81      -0.2717
    103  CA        25.7580   37.8720   14.2710 C.3    81  PRO81       0.1535
    104  C         26.4150   37.6980   15.6390 C.2    81  PRO81       0.2598
    105  O         26.7250   38.6860   16.3010 O.2    81  PRO81      -0.2715
    106  CB        24.2290   37.8760   14.3890 C.3    81  PRO81       0.0310
    107  CG        23.7910   36.5390   13.9160 C.3    81  PRO81       0.0237
    108  CD        24.7970   36.1000   12.9000 C.3    81  PRO81       0.0939
    109  N         26.6470   36.4540   16.0420 N.am   82  VAL82      -0.1978
    110  CA        27.3510   36.1510   17.2850 C.3    82  VAL82       0.1596
    111  C         28.1150   34.8460   17.1330 C.2    82  VAL82       0.2287
    112  O         27.7120   33.9770   16.3490 O.2    82  VAL82      -0.2864
    113  CB        26.3600   36.0050   18.4710 C.3    82  VAL82       0.0276
    114  CG1       25.3160   34.9480   18.1690 C.3    82  VAL82       0.0022
    115  CG2       27.0840   35.6360   19.7580 C.3    82  VAL82       0.0022
    116  N         28.6750   31.2760   17.6340 N.3    84  ILE84      -0.1245
    117  CA        27.8090   30.1840   18.0370 C.3    84  ILE84       0.1561
    118  C         28.5530   28.8550   18.0520 C.2    84  ILE84       0.2260
    119  O         29.3080   28.5350   17.1200 O.2    84  ILE84      -0.2867
    120  CB        26.5340   30.0760   17.1750 C.3    84  ILE84       0.0252
    121  CG1       26.8470   29.7920   15.7000 C.3    84  ILE84       0.0019
    122  CG2       25.6910   31.3360   17.3360 C.3    84  ILE84       0.0019
    123  CD1       25.6260   29.6440   14.8520 C.3    84  ILE84       0.0001
@<TRIPOS>BOND
     1    88    89    1
     2    88    85    1
     3    91    89   ar
     4    91    93   ar
     5    89    90   ar
     6    93    94   ar
     7    90    92   ar
     8    94    92   ar
     9    87    86    2
    10    85    86    1
    11    85    84    1
    12    60    61    1
    13    63    62    2
    14    61    62    1
    15    61    64    1
    16    62    68   am
    17    68    69    1
    18    69    70    1
    19    66    64    1
    20    64    65    1
    21    70    72   am
    22    70    71    2
    23    65    67    1
    24    75    74    2
    25    72    73    1
    26    79    78    2
    27    74    73    1
    28    74    76   am
    29    78    77    1
    30    76    77    1
    31    77    80    1
    32    52    50   ar
    33    44    42   ar
    34    50    51   ar
    35    50    49    1
    36    80    81    1
    37    80    82    1
    38    81    83    1
    39    95    96    1
    40    42    41    1
    41    42    43   ar
    42    49    46    1
    43    58    57    1
    44    41    38    1
    45    59    57    1
    46    96    99    1
    47    96    97    1
    48    57    54    1
    49    99   101    1
    50    99   100    1
    51    46    45    1
    52    46    47    1
    53    45    39   am
    54   108   102    1
    55   108   107    1
    56    97    98    2
    57    97   102   am
    58    38    39    1
    59    38    37    1
    60    39    40    2
    61    54    53    1
    62    54    55    1
    63   102   103    1
    64    37    34   am
    65    47    48    2
    66   107   106    1
    67    55    56    2
    68   103   106    1
    69   103   104    1
    70    31    30    2
    71    34    33    1
    72    34    35    2
    73   123   121    1
    74    33    36    1
    75    33    32    1
    76   104   109   am
    77   104   105    2
    78    30    32   am
    79    30    29    1
    80   121   120    1
    81   109   110    1
    82   112   111    2
    83    29    28    1
    84   119   118    2
    85   111   110    1
    86   120   122    1
    87   120   117    1
    88   110   113    1
    89    27    25   ar
    90   116   117    1
    91   117   118    1
    92    25    26   ar
    93    25    24    1
    94   114   113    1
    95   113   115    1
    96    23    22    2
    97    24    21    1
    98    22    21    1
    99    21    20    1
   100    19    17    1
   101    15    14    2
   102    16    17    1
   103    16    13    1
   104    10     9    1
   105    17    18    1
   106    11     9    1
   107    12    13    1
   108    14    13    1
   109     9     8    2
   110     8     7    1
   111     7     6    1
   112     6     5    1
   113     5     2    1
   114     2     3    1
   115     2     1    1
   116     3     4    2
