@<TRIPOS>MOLECULE
tmp/2i0hA00.pdb
 183 172 0 0 0
SMALL
GASTEIGER

@<TRIPOS>ATOM
      1  N         23.8900   10.9420   40.7190 N.3    27  VAL27      -0.1231
      2  CA        24.9370   11.0520   39.7140 C.3    27  VAL27       0.1692
      3  C         25.2200   12.5410   39.4850 C.2    27  VAL27       0.2592
      4  O         24.3140   13.3760   39.6200 O.2    27  VAL27      -0.2718
      5  CB        24.5210   10.4140   38.3660 C.3    27  VAL27       0.0266
      6  CG1       23.8660    9.0710   38.5990 C.3    27  VAL27       0.0020
      7  CG2       23.5870   11.3300   37.6080 C.3    27  VAL27       0.0020
      8  N         26.4740   12.8640   39.1630 N.am   28  GLY28      -0.1957
      9  CA        26.8660   14.2410   38.8760 C.3    28  GLY28       0.1869
     10  C         27.0620   15.2200   40.0300 C.2    28  GLY28       0.2309
     11  O         27.4650   16.3790   39.8130 O.2    28  GLY28      -0.2863
     12  N         24.3840   19.3800   37.4460 N.3    32  TYR32      -0.1241
     13  CA        23.3820   19.3620   36.3770 C.3    32  TYR32       0.1605
     14  C         21.9410   19.1460   36.8730 C.2    32  TYR32       0.2264
     15  O         21.0780   18.6880   36.1210 O.2    32  TYR32      -0.2867
     16  CB        23.7430   18.2590   35.3690 C.3    32  TYR32       0.0534
     17  CG        24.7930   18.6470   34.3360 C.ar   32  TYR32      -0.0201
     18  CD1       24.4460   19.4160   33.2170 C.ar   32  TYR32      -0.0009
     19  CD2       26.1280   18.2480   34.4740 C.ar   32  TYR32      -0.0009
     20  CE1       25.4040   19.7820   32.2520 C.ar   32  TYR32       0.0417
     21  CE2       27.0960   18.6030   33.5190 C.ar   32  TYR32       0.0417
     22  CZ        26.7220   19.3730   32.4090 C.ar   32  TYR32       0.1957
     23  OH        27.6530   19.7390   31.4510 O.3    32  TYR32      -0.2866
     24  N         19.6580   14.3950   39.5750 N.3    35  VAL35      -0.1231
     25  CA        19.6140   13.2430   38.7010 C.3    35  VAL35       0.1692
     26  C         20.0760   12.0030   39.4690 C.2    35  VAL35       0.2592
     27  O         20.9860   12.0830   40.3020 O.2    35  VAL35      -0.2718
     28  CB        20.5550   13.4500   37.4700 C.3    35  VAL35       0.0266
     29  CG1       20.4640   12.2650   36.5310 C.3    35  VAL35       0.0020
     30  CG2       20.1980   14.7600   36.7380 C.3    35  VAL35       0.0020
     31  N         19.4210   10.8730   39.1860 N.am   36  CYS36      -0.1970
     32  CA        19.7580    9.5840   39.7880 C.3    36  CYS36       0.1712
     33  C         19.8150    8.4820   38.7510 C.2    36  CYS36       0.2296
     34  O         19.1780    8.5650   37.6930 O.2    36  CYS36      -0.2864
     35  CB        18.7180    9.1420   40.8240 C.3    36  CYS36       0.0983
     36  SG        18.9170    9.8360   42.4400 S.3    36  CYS36      -0.0798
     37  N         17.9880    6.6440   33.8620 N.3    48  ALA48      -0.1231
     38  CA        18.4970    7.8630   34.4700 C.3    48  ALA48       0.1694
     39  C         17.1980    8.6100   34.7610 C.2    48  ALA48       0.2592
     40  O         16.2900    8.6070   33.9410 O.2    48  ALA48      -0.2718
     41  CB        19.3840    8.6490   33.4730 C.3    48  ALA48       0.0304
     42  N         17.0860    9.2120   35.9340 N.am   49  VAL49      -0.1966
     43  CA        15.8580    9.9220   36.3090 C.3    49  VAL49       0.1727
     44  C         16.1890   11.3500   36.7380 C.2    49  VAL49       0.2616
     45  O         17.0300   11.5440   37.6250 O.2    49  VAL49      -0.2715
     46  CB        15.1730    9.2470   37.5130 C.3    49  VAL49       0.0290
     47  CG1       13.8470    9.9630   37.8530 C.3    49  VAL49       0.0023
     48  CG2       14.9510    7.7750   37.2370 C.3    49  VAL49       0.0023
     49  N         15.5470   12.3440   36.1190 N.am   50  LYS50      -0.1977
     50  CA        15.7730   13.7340   36.5140 C.3    50  LYS50       0.1596
     51  C         14.5270   14.2590   37.2280 C.2    50  LYS50       0.2287
     52  O         13.4120   14.1480   36.7100 O.2    50  LYS50      -0.2864
     53  CB        16.0170   14.6410   35.3100 C.3    50  LYS50       0.0298
     54  CG        16.3430   16.0840   35.7300 C.3    50  LYS50       0.0038
     55  CD        15.9890   17.1240   34.6570 C.3    50  LYS50       0.0206
     56  CE        16.5310   16.7990   33.2870 C.3    50  LYS50       0.1093
     57  NZ        16.4300   18.0000   32.4030 N.3    50  LYS50      -0.1314
     58  N         10.3850   21.6050   27.8360 N.3    68  GLU68      -0.1245
     59  CA        11.2130   20.4070   27.9460 C.3    68  GLU68       0.1567
     60  C         10.3690   19.1330   27.9250 C.2    68  GLU68       0.2260
     61  O         10.7260   18.1450   27.2540 O.2    68  GLU68      -0.2867
     62  CB        12.0700   20.4500   29.2270 C.3    68  GLU68       0.0388
     63  CG        12.8400   19.1280   29.4420 C.3    68  GLU68       0.1160
     64  CD        14.0000   19.2260   30.4490 C.2    68  GLU68       0.3649
     65  OE1       13.9320   20.0560   31.3990 O.co2  68  GLU68      -0.2457
     66  OE2       14.9750   18.4540   30.2910 O.co2  68  GLU68      -0.2457
     67  N         10.8120   16.3170   25.0530 N.3    72  LEU72      -0.1245
     68  CA        11.1670   14.9390   25.3980 C.3    72  LEU72       0.1561
     69  C         10.0920   13.9220   25.0170 C.2    72  LEU72       0.2260
     70  O         10.4030   12.8130   24.6050 O.2    72  LEU72      -0.2867
     71  CB        11.4940   14.8450   26.8940 C.3    72  LEU72       0.0270
     72  CG        12.8080   15.5520   27.2640 C.3    72  LEU72       0.0019
     73  CD1       12.9520   15.5390   28.7750 C.3    72  LEU72       0.0001
     74  CD2       14.0150   14.8600   26.5970 C.3    72  LEU72       0.0001
     75  N         17.7660   11.3350   23.0700 N.3    81  ILE81      -0.1245
     76  CA        17.2620   11.0400   24.3940 C.3    81  ILE81       0.1561
     77  C         15.7370   11.2390   24.3570 C.2    81  ILE81       0.2260
     78  O         15.2420   12.2400   23.8250 O.2    81  ILE81      -0.2867
     79  CB        17.9300   11.9490   25.4710 C.3    81  ILE81       0.0252
     80  CG1       17.8310   11.2680   26.8330 C.3    81  ILE81       0.0019
     81  CG2       17.2780   13.3180   25.5060 C.3    81  ILE81       0.0019
     82  CD1       18.7040    9.9740   26.9210 C.3    81  ILE81       0.0001
     83  N         11.6710    9.7970   26.3510 N.3    83  LEU83      -0.1245
     84  CA        11.0790    9.3790   27.6090 C.3    83  LEU83       0.1561
     85  C         10.5750    7.9610   27.7420 C.2    83  LEU83       0.2260
     86  O          9.7010    7.5270   27.0020 O.2    83  LEU83      -0.2867
     87  CB         9.9110   10.2890   27.9780 C.3    83  LEU83       0.0270
     88  CG        10.2020   11.7070   28.4140 C.3    83  LEU83       0.0019
     89  CD1        8.8600   12.4310   28.6160 C.3    83  LEU83       0.0001
     90  CD2       11.0240   11.6860   29.6990 C.3    83  LEU83       0.0001
     91  N         11.4200   12.8230   35.1680 N.3   101  LEU101     -0.1245
     92  CA        11.6240   12.4130   33.7890 C.3   101  LEU101      0.1561
     93  C         12.5520   11.1950   33.7550 C.2   101  LEU101      0.2260
     94  O         13.7040   11.2710   34.2200 O.2   101  LEU101     -0.2867
     95  CB        12.2630   13.5800   33.0210 C.3   101  LEU101      0.0270
     96  CG        11.5030   14.9030   32.9960 C.3   101  LEU101      0.0019
     97  CD1       12.4250   15.9830   32.4030 C.3   101  LEU101      0.0001
     98  CD2       10.1980   14.7630   32.1720 C.3   101  LEU101      0.0001
     99  N         14.6100    8.2620   31.5800 N.3   103  THR103     -0.1203
    100  CA        15.2060    7.9210   30.2880 C.3   103  THR103      0.1994
    101  C         16.2050    6.7540   30.4090 C.2   103  THR103      0.2618
    102  O         16.4850    6.2580   31.5020 O.2   103  THR103     -0.2717
    103  CB        15.9940    9.1120   29.6810 C.3   103  THR103      0.1784
    104  OG1       17.2040    9.3020   30.4260 O.3   103  THR103     -0.2211
    105  CG2       15.1890   10.3890   29.7370 C.3   103  THR103      0.0376
    106  N         16.7120    6.2960   29.2690 N.am  104  HIS104     -0.1961
    107  CA        17.7330    5.2590   29.2690 C.3   104  HIS104      0.1787
    108  C         18.9890    5.7990   29.9560 C.2   104  HIS104      0.2620
    109  O         19.3550    6.9600   29.7770 O.2   104  HIS104     -0.2715
    110  CB        18.1390    4.8890   27.8430 C.3   104  HIS104      0.0785
    111  CG        17.0680    4.2190   27.0520 C.ar  104  HIS104      0.0821
    112  ND1       16.8460    2.8610   27.1110 N.ar  104  HIS104     -0.2267
    113  CD2       16.2040    4.7050   26.1250 C.ar  104  HIS104      0.1154
    114  CE1       15.8980    2.5350   26.2470 C.ar  104  HIS104      0.1986
    115  NE2       15.4940    3.6340   25.6350 N.ar  104  HIS104     -0.2212
    116  N         19.6490    4.9590   30.7350 N.am  105  LEU105     -0.1963
    117  CA        20.8840    5.3670   31.3760 C.3   105  LEU105      0.1728
    118  C         22.0090    5.1270   30.3750 C.2   105  LEU105      0.2616
    119  O         22.1760    4.0160   29.8740 O.2   105  LEU105     -0.2715
    120  CB        21.1690    4.5330   32.6370 C.3   105  LEU105      0.0311
    121  CG        22.5260    4.8100   33.3150 C.3   105  LEU105      0.0022
    122  CD1       22.5730    6.2570   33.8170 C.3   105  LEU105      0.0001
    123  CD2       22.7650    3.8350   34.4790 C.3   105  LEU105      0.0001
    124  N         22.7680    6.1660   30.0700 N.am  106  MET106     -0.1963
    125  CA        23.8980    6.0070   29.1520 C.3   106  MET106      0.1736
    126  C         25.1350    6.0020   30.0450 C.2   106  MET106      0.2617
    127  O         25.9930    5.1540   29.8850 O.2   106  MET106     -0.2715
    128  CB        23.9240    7.1290   28.1070 C.3   106  MET106      0.0427
    129  CG        22.7030    7.0910   27.1710 C.3   106  MET106      0.0599
    130  SD        22.4410    5.5320   26.2580 S.3   106  MET106     -0.1393
    131  CE        23.7100    5.6340   24.9740 C.3   106  MET106      0.0692
    132  N         25.1920    6.9250   31.0020 N.am  107  GLY107     -0.1940
    133  CA        26.2840    6.9450   31.9700 C.3   107  GLY107      0.2014
    134  C         27.4980    7.8310   31.7670 C.2   107  GLY107      0.2639
    135  O         28.3070    7.9890   32.6840 O.2   107  GLY107     -0.2714
    136  N         27.6400    8.4090   30.5800 N.am  108  ALA108     -0.1963
    137  CA        28.7740    9.2810   30.3070 C.3   108  ALA108      0.1728
    138  C         28.4570   10.1600   29.1000 C.2   108  ALA108      0.2616
    139  O         27.5080    9.8980   28.3560 O.2   108  ALA108     -0.2715
    140  CB        30.0210    8.4260   30.0260 C.3   108  ALA108      0.0334
    141  N         29.2480   11.2130   28.9170 N.am  109  ASP109     -0.1971
    142  CA        29.0690   12.0840   27.7660 C.3   109  ASP109      0.1709
    143  C         30.3870   11.9730   26.9820 C.2   109  ASP109      0.2293
    144  O         31.4310   11.5780   27.5340 O.2   109  ASP109     -0.2864
    145  CB        28.7630   13.5130   28.2210 C.3   109  ASP109      0.1436
    146  CG        29.9070   14.1320   29.0020 C.2   109  ASP109      0.3671
    147  OD1       30.8070   14.7150   28.3940 O.co2 109  ASP109     -0.2456
    148  OD2       29.9200   14.0100   30.2450 O.co2 109  ASP109     -0.2456
    149  N         29.7450   17.4820   25.2270 N.3   151  SER151     -0.1202
    150  CA        29.1080   17.3050   26.5260 C.3   151  SER151      0.2020
    151  C         27.6060   17.0200   26.4410 C.2   151  SER151      0.2618
    152  O         27.0170   16.5670   27.4220 O.2   151  SER151     -0.2717
    153  CB        29.3820   18.5240   27.4330 C.3   151  SER151      0.2103
    154  OG        28.7500   19.6940   26.9530 O.3   151  SER151     -0.2182
    155  N         27.0060   17.2640   25.2680 N.am  152  ASN152     -0.1974
    156  CA        25.5730   17.0100   25.0110 C.3   152  ASN152      0.1688
    157  C         25.3010   15.6860   24.2960 C.2   152  ASN152      0.2292
    158  O         24.1930   15.4420   23.8090 O.2   152  ASN152     -0.2864
    159  CB        24.9620   18.1330   24.1590 C.3   152  ASN152      0.1181
    160  CG        24.4830   19.2730   24.9960 C.2   152  ASN152      0.2629
    161  OD1       24.1640   19.0870   26.1850 O.2   152  ASN152     -0.2716
    162  ND2       24.4120   20.4550   24.4100 N.am  152  ASN152     -0.0877
    163  N         25.3580   11.8060   24.9890 N.3   154  ALA154     -0.1245
    164  CA        25.4040   10.7470   25.9830 C.3   154  ALA154      0.1562
    165  C         25.8440    9.4620   25.2960 C.2   154  ALA154      0.2260
    166  O         25.2620    9.0630   24.2890 O.2   154  ALA154     -0.2867
    167  CB        24.0400   10.5690   26.5950 C.3   154  ALA154      0.0290
    168  N         21.4850   14.7510   23.7340 N.3   164  LEU164     -0.1231
    169  CA        20.8180   15.4180   24.8640 C.3   164  LEU164      0.1693
    170  C         20.5670   16.9010   24.6120 C.2   164  LEU164      0.2592
    171  O         21.1990   17.5030   23.7470 O.2   164  LEU164     -0.2718
    172  CB        21.7010   15.3810   26.1090 C.3   164  LEU164      0.0284
    173  CG        22.2080   14.0600   26.6550 C.3   164  LEU164      0.0019
    174  CD1       23.2660   14.3530   27.7080 C.3   164  LEU164      0.0001
    175  CD2       21.0570   13.2480   27.2280 C.3   164  LEU164      0.0001
    176  N         19.6390   17.4880   25.3680 N.am  165  ASP165     -0.1974
    177  CA        19.4090   18.9450   25.2940 C.3   165  ASP165      0.1709
    178  C         18.9380   19.6480   24.0320 C.2   165  ASP165      0.2293
    179  O         19.1950   20.8440   23.8810 O.2   165  ASP165     -0.2864
    180  CB        20.6920   19.6550   25.6660 C.3   165  ASP165      0.1436
    181  CG        20.7210   20.0650   27.0680 C.2   165  ASP165      0.3671
    182  OD1       20.0270   21.0590   27.3960 O.co2 165  ASP165     -0.2456
    183  OD2       21.4400   19.3760   27.8320 O.co2 165  ASP165     -0.2456
@<TRIPOS>BOND
     1    75    76    1
     2   168   169    1
     3   171   170    2
     4   158   157    2
     5    78    77    2
     6   179   178    2
     7   178   177    1
     8   159   160    1
     9   159   156    1
    10   166   165    2
    11   157   156    1
    12    77    76    1
    13    76    79    1
    14   162   160   am
    15    70    69    2
    16   170   169    1
    17   170   176   am
    18   169   172    1
    19   131   130    1
    20   163   164    1
    21   160   161    2
    22   156   155    1
    23    69    68    1
    24    67    68    1
    25   149   150    1
    26   155   151   am
    27   177   176    1
    28   177   180    1
    29   165   164    1
    30    68    71    1
    31    79    81    1
    32    79    80    1
    33   115   113   ar
    34   115   114   ar
    35   180   181    1
    36   164   167    1
    37   172   173    1
    38   113   111   ar
    39   114   112   ar
    40   130   129    1
    41    83    84    1
    42   151   150    1
    43   151   152    2
    44   150   153    1
    45    74    72    1
    46   173   175    1
    47   173   174    1
    48    80    82    1
    49    71    72    1
    50   154   153    1
    51   143   144    2
    52   143   142    1
    53    86    85    2
    54   111   112   ar
    55   111   110    1
    56   181   182   ar
    57   181   183   ar
    58   129   128    1
    59    61    60    2
    60    72    73    1
    61    84    85    1
    62    84    87    1
    63   142   145    1
    64   142   141    1
    65    58    59    1
    66   110   107    1
    67    60    59    1
    68    59    62    1
    69    87    88    1
    70   128   125    1
    71   145   146    1
    72   139   138    2
    73   147   146   ar
    74    88    89    1
    75    88    90    1
    76   141   138   am
    77   146   148   ar
    78   138   137    1
    79   125   126    1
    80   125   124    1
    81    62    63    1
    82   107   106    1
    83   107   108    1
    84   106   101   am
    85    63    64    1
    86   103   105    1
    87   103   100    1
    88   103   104    1
    89   109   108    2
    90   119   118    2
    91   127   126    2
    92   108   116   am
    93   140   137    1
    94   126   132   am
    95   124   118   am
    96   100   101    1
    97   100    99    1
    98    66    64   ar
    99   137   136    1
   100   118   117    1
   101   101   102    2
   102    64    65   ar
   103   136   134   am
   104   116   117    1
   105   132   133    1
   106   117   120    1
   107    23    22    1
   108   134   133    1
   109   134   135    2
   110    98    96    1
   111    20    22   ar
   112    20    18   ar
   113    97    96    1
   114    57    56    1
   115    22    21   ar
   116   120   121    1
   117    96    95    1
   118    95    92    1
   119    18    17   ar
   120    56    55    1
   121   121   122    1
   122   121   123    1
   123    41    38    1
   124    21    19   ar
   125    93    92    1
   126    93    94    2
   127    92    91    1
   128    37    38    1
   129    40    39    2
   130    17    19   ar
   131    17    16    1
   132    38    39    1
   133    55    54    1
   134    39    42   am
   135    53    54    1
   136    53    50    1
   137    16    13    1
   138    42    43    1
   139    49    50    1
   140    49    44   am
   141    15    14    2
   142    43    44    1
   143    43    46    1
   144    13    14    1
   145    13    12    1
   146    50    51    1
   147    29    28    1
   148    52    51    2
   149    44    45    2
   150    30    28    1
   151    48    46    1
   152    28    25    1
   153    46    47    1
   154     7     5    1
   155    34    33    2
   156     5     6    1
   157     5     2    1
   158    25    26    1
   159    25    24    1
   160    33    32    1
   161     9     8    1
   162     9    10    1
   163     8     3   am
   164    31    26   am
   165    31    32    1
   166    26    27    2
   167     3     4    2
   168     3     2    1
   169     2     1    1
   170    32    35    1
   171    11    10    2
   172    35    36    1
