@<TRIPOS>MOLECULE
tmp/2i0iC00.pdb
 157 153 0 0 0
SMALL
GASTEIGER

@<TRIPOS>ATOM
      1  N         22.1550  -21.3600   16.5440 N.3     9  ARG9       -0.1245
      2  CA        21.4610  -20.0800   16.4550 C.3     9  ARG9        0.1563
      3  C         22.3130  -18.9470   15.8460 C.2     9  ARG9        0.2260
      4  O         23.5450  -19.0210   15.8070 O.2     9  ARG9       -0.2867
      5  CB        20.9800  -19.7040   17.8520 C.3     9  ARG9        0.0307
      6  CG        20.0300  -18.5350   17.9370 C.3     9  ARG9        0.0489
      7  CD        18.5900  -19.0050   17.9980 C.3     9  ARG9        0.2205
      8  NE        18.4090  -20.1350   18.9030 N.pl3   9  ARG9       -0.0865
      9  CZ        17.2430  -20.7390   19.1170 C.cat   9  ARG9        0.5346
     10  NH1       16.1480  -20.3150   18.4980 N.pl3   9  ARG9        0.1354
     11  NH2       17.1720  -21.7870   19.9290 N.pl3   9  ARG9        0.1354
     12  N         20.0200  -13.9710   13.2160 N.3    12  THR12      -0.1203
     13  CA        18.7880  -14.1770   12.4500 C.3    12  THR12       0.1994
     14  C         17.9490  -15.3270   13.0230 C.2    12  THR12       0.2618
     15  O         16.9250  -15.6990   12.4530 O.2    12  THR12      -0.2717
     16  CB        19.1280  -14.5410   11.0030 C.3    12  THR12       0.1784
     17  OG1       19.8310  -15.7910   10.9920 O.3    12  THR12      -0.2211
     18  CG2       20.0160  -13.4740   10.3830 C.3    12  THR12       0.0376
     19  N         18.3970  -15.8770   14.1500 N.am   13  GLY13      -0.1942
     20  CA        17.7140  -16.9990   14.7680 C.3    13  GLY13       0.2014
     21  C         18.2130  -18.3000   14.1610 C.2    13  GLY13       0.2639
     22  O         19.4130  -18.4820   13.9350 O.2    13  GLY13      -0.2714
     23  N         17.2820  -19.2020   13.8760 N.am   14  LEU14      -0.1963
     24  CA        17.6070  -20.4940   13.2820 C.3    14  LEU14       0.1728
     25  C         17.6890  -20.4250   11.7620 C.2    14  LEU14       0.2617
     26  O         18.3620  -21.2410   11.1290 O.2    14  LEU14      -0.2715
     27  CB        16.5660  -21.5260   13.7030 C.3    14  LEU14       0.0311
     28  CG        16.6480  -21.8660   15.1880 C.3    14  LEU14       0.0022
     29  CD1       15.5330  -22.8310   15.5670 C.3    14  LEU14       0.0001
     30  CD2       18.0200  -22.4650   15.4740 C.3    14  LEU14       0.0001
     31  N         16.9850  -19.4580   11.1810 N.am   15  GLY15      -0.1940
     32  CA        17.0330  -19.2810    9.7420 C.3    15  GLY15       0.2014
     33  C         15.9370  -19.8890    8.8940 C.2    15  GLY15       0.2639
     34  O         16.1850  -20.2500    7.7510 O.2    15  GLY15      -0.2714
     35  N         14.7310  -20.0050    9.4280 N.am   16  PHE16      -0.1959
     36  CA        13.6510  -20.5660    8.6430 C.3    16  PHE16       0.1771
     37  C         12.3040  -20.3550    9.2990 C.2    16  PHE16       0.2620
     38  O         12.2070  -20.2970   10.5260 O.2    16  PHE16      -0.2715
     39  CB        13.9010  -22.0590    8.3980 C.3    16  PHE16       0.0574
     40  CG        13.8030  -22.9130    9.6280 C.ar   16  PHE16      -0.0200
     41  CD1       12.5640  -23.2820   10.1400 C.ar   16  PHE16      -0.0042
     42  CD2       14.9550  -23.3780   10.2580 C.ar   16  PHE16      -0.0042
     43  CE1       12.4700  -24.1010   11.2560 C.ar   16  PHE16      -0.0003
     44  CE2       14.8740  -24.1990   11.3770 C.ar   16  PHE16      -0.0003
     45  CZ        13.6310  -24.5620   11.8760 C.ar   16  PHE16      -0.0000
     46  N         11.2650  -20.2340    8.4790 N.am   17  ASN17      -0.1958
     47  CA         9.9170  -20.0310    9.0030 C.3    17  ASN17       0.1819
     48  C          9.1760  -21.3580    9.0480 C.2    17  ASN17       0.2621
     49  O          9.5390  -22.3030    8.3470 O.2    17  ASN17      -0.2715
     50  CB         9.1290  -19.0410    8.1320 C.3    17  ASN17       0.1195
     51  CG         9.7700  -17.6660    8.0650 C.2    17  ASN17       0.2630
     52  OD1        9.1430  -16.7120    7.6030 O.2    17  ASN17      -0.2716
     53  ND2       11.0240  -17.5560    8.5090 N.am   17  ASN17      -0.0877
     54  N          8.1380  -21.4160    9.8770 N.am   18  ILE18      -0.1963
     55  CA         7.3320  -22.6230   10.0200 C.3    18  ILE18       0.1727
     56  C          5.8380  -22.3480    9.8780 C.2    18  ILE18       0.2616
     57  O          5.3690  -21.2090   10.0430 O.2    18  ILE18      -0.2715
     58  CB         7.5410  -23.3030   11.3920 C.3    18  ILE18       0.0290
     59  CG1        6.8830  -22.4700   12.4970 C.3    18  ILE18       0.0022
     60  CG2        9.0220  -23.4880   11.6480 C.3    18  ILE18       0.0023
     61  CD1        6.7220  -23.1880   13.8350 C.3    18  ILE18       0.0001
     62  N          5.1010  -23.4160    9.5850 N.am   19  VAL19      -0.1963
     63  CA         3.6580  -23.3550    9.4200 C.3    19  VAL19       0.1727
     64  C          3.0550  -24.6500    9.9380 C.2    19  VAL19       0.2617
     65  O          3.7100  -25.6920    9.9220 O.2    19  VAL19      -0.2715
     66  CB         3.2860  -23.1740    7.9430 C.3    19  VAL19       0.0290
     67  CG1        3.3640  -21.7070    7.5640 C.3    19  VAL19       0.0023
     68  CG2        4.2470  -23.9780    7.0700 C.3    19  VAL19       0.0023
     69  N          1.8130  -24.5760   10.4030 N.am   20  GLY20      -0.1940
     70  CA         1.1390  -25.7500   10.9280 C.3    20  GLY20       0.2014
     71  C          0.7860  -25.5620   12.3880 C.2    20  GLY20       0.2639
     72  O          0.8910  -24.4620   12.9140 O.2    20  GLY20      -0.2714
     73  N          0.3560  -26.6300   13.0470 N.am   21  GLY21      -0.1939
     74  CA         0.0180  -26.5330   14.4570 C.3    21  GLY21       0.2014
     75  C         -1.3030  -25.8590   14.7750 C.2    21  GLY21       0.2638
     76  O         -1.3580  -24.9330   15.5860 O.2    21  GLY21      -0.2714
     77  N         -2.3720  -26.3250   14.1410 N.am   22  GLU22      -0.1977
     78  CA        -3.6970  -25.7730   14.3770 C.3    22  GLU22       0.1602
     79  C         -4.7000  -26.8730   14.7090 C.2    22  GLU22       0.2287
     80  O         -5.8590  -26.6040   15.0300 O.2    22  GLU22      -0.2864
     81  CB        -4.1660  -24.9850   13.1600 C.3    22  GLU22       0.0415
     82  CG        -3.4420  -23.6710   12.9850 C.3    22  GLU22       0.1163
     83  CD        -4.3480  -22.5980   12.4220 C.2    22  GLU22       0.3649
     84  OE1       -5.4330  -22.3800   13.0020 O.co2  22  GLU22      -0.2457
     85  OE2       -3.9800  -21.9730   11.4060 O.co2  22  GLU22      -0.2457
     86  N          8.2730  -23.5730    6.0340 N.3    30  SER30      -0.1202
     87  CA         7.6290  -22.7560    5.0120 C.3    30  SER30       0.2020
     88  C          8.5860  -21.7950    4.3100 C.2    30  SER30       0.2618
     89  O          8.4460  -21.5350    3.1160 O.2    30  SER30      -0.2717
     90  CB         6.4840  -21.9600    5.6310 C.3    30  SER30       0.2103
     91  OG         6.9830  -21.0060    6.5390 O.3    30  SER30      -0.2182
     92  N          9.5550  -21.2660    5.0490 N.am   31  PHE31      -0.1975
     93  CA        10.5160  -20.3270    4.4790 C.3    31  PHE31       0.1639
     94  C         11.9460  -20.6170    4.9430 C.2    31  PHE31       0.2290
     95  O         12.1650  -21.1290    6.0400 O.2    31  PHE31      -0.2864
     96  CB        10.1260  -18.8920    4.8640 C.3    31  PHE31       0.0560
     97  CG        11.0050  -17.8500    4.2520 C.ar   31  PHE31      -0.0200
     98  CD1       10.8920  -17.5350    2.9000 C.ar   31  PHE31      -0.0042
     99  CD2       12.0070  -17.2380    5.0040 C.ar   31  PHE31      -0.0042
    100  CE1       11.7660  -16.6330    2.3010 C.ar   31  PHE31      -0.0003
    101  CE2       12.8880  -16.3360    4.4190 C.ar   31  PHE31      -0.0003
    102  CZ        12.7690  -16.0340    3.0650 C.ar   31  PHE31      -0.0000
    103  N         15.4880  -18.5000    5.1980 N.3    33  LEU33      -0.1245
    104  CA        16.2750  -17.2690    5.0920 C.3    33  LEU33       0.1561
    105  C         17.5990  -17.4740    4.3960 C.2    33  LEU33       0.2260
    106  O         18.4090  -18.2830    4.8430 O.2    33  LEU33      -0.2867
    107  CB        16.6040  -16.7050    6.4680 C.3    33  LEU33       0.0270
    108  CG        15.5900  -15.8420    7.2030 C.3    33  LEU33       0.0019
    109  CD1       14.7250  -16.7070    8.1540 C.3    33  LEU33       0.0001
    110  CD2       16.3660  -14.7730    7.9720 C.3    33  LEU33       0.0001
    111  N          1.0590  -27.6950   18.8980 N.3    62  SER62      -0.1202
    112  CA         0.3930  -26.5460   18.3060 C.3    62  SER62       0.2020
    113  C          1.4530  -25.6200   17.7140 C.2    62  SER62       0.2619
    114  O          2.6450  -25.7480   18.0170 O.2    62  SER62      -0.2717
    115  CB        -0.4230  -25.7960   19.3560 C.3    62  SER62       0.2103
    116  OG         0.4120  -25.0160   20.1880 O.3    62  SER62      -0.2182
    117  N          1.0220  -24.6990   16.8580 N.am   63  HIS63      -0.1961
    118  CA         1.9520  -23.7690   16.2290 C.3    63  HIS63       0.1787
    119  C          2.7790  -23.0740   17.3090 C.2    63  HIS63       0.2620
    120  O          4.0050  -23.0380   17.2270 O.2    63  HIS63      -0.2715
    121  CB         1.2000  -22.7210   15.3870 C.3    63  HIS63       0.0785
    122  CG         2.0920  -21.9000   14.5000 C.ar   63  HIS63       0.0821
    123  ND1        2.7970  -22.4420   13.4450 N.ar   63  HIS63      -0.2267
    124  CD2        2.4170  -20.5850   14.5300 C.ar   63  HIS63       0.1154
    125  CE1        3.5200  -21.4980   12.8660 C.ar   63  HIS63       0.1986
    126  NE2        3.3080  -20.3610   13.5050 N.ar   63  HIS63      -0.2212
    127  N          2.1050  -22.5530   18.3300 N.am   64  GLU64      -0.1977
    128  CA         2.7890  -21.8470   19.4050 C.3    64  GLU64       0.1602
    129  C          3.8780  -22.6660   20.0910 C.2    64  GLU64       0.2287
    130  O          4.9690  -22.1540   20.3720 O.2    64  GLU64      -0.2864
    131  CB         1.7890  -21.3730   20.4550 C.3    64  GLU64       0.0415
    132  CG         2.3930  -20.3270   21.3750 C.3    64  GLU64       0.1163
    133  CD         1.3620  -19.6570   22.2550 C.2    64  GLU64       0.3649
    134  OE1        1.6560  -18.5570   22.7850 O.co2  64  GLU64      -0.2457
    135  OE2        0.2640  -20.2350   22.4200 O.co2  64  GLU64      -0.2457
    136  N          6.9180  -22.9440   18.0540 N.3    67  ALA67      -0.1245
    137  CA         7.6740  -21.7000   18.0520 C.3    67  ALA67       0.1562
    138  C          8.5250  -21.5590   19.3070 C.2    67  ALA67       0.2260
    139  O          9.7630  -21.4800   19.2430 O.2    67  ALA67      -0.2867
    140  CB         6.7180  -20.5370   17.9410 C.3    67  ALA67       0.0290
    141  N         11.2950  -24.0120   19.7350 N.3    70  LEU70      -0.1231
    142  CA        12.3860  -23.6880   18.8310 C.3    70  LEU70       0.1693
    143  C         13.2180  -22.4720   19.2440 C.2    70  LEU70       0.2591
    144  O         14.4020  -22.4000   18.9160 O.2    70  LEU70      -0.2718
    145  CB        11.8420  -23.5090   17.4140 C.3    70  LEU70       0.0284
    146  CG        11.4390  -24.8220   16.7430 C.3    70  LEU70       0.0019
    147  CD1       10.5200  -24.5210   15.5770 C.3    70  LEU70       0.0001
    148  CD2       12.6900  -25.5860   16.2890 C.3    70  LEU70       0.0001
    149  N         12.6180  -21.5130   19.9460 N.am   71  LYS71      -0.1980
    150  CA        13.3950  -20.3600   20.3900 C.3    71  LYS71       0.1596
    151  C         14.2170  -20.8040   21.6080 C.2    71  LYS71       0.2287
    152  O         15.4170  -20.5360   21.7050 O.2    71  LYS71      -0.2864
    153  CB        12.4850  -19.1780   20.7740 C.3    71  LYS71       0.0298
    154  CG        11.7090  -19.3660   22.0690 C.3    71  LYS71       0.0038
    155  CD        10.8460  -18.1530   22.4540 C.3    71  LYS71       0.0206
    156  CE         9.9490  -18.4840   23.6850 C.3    71  LYS71       0.1093
    157  NZ         9.1230  -17.3530   24.2390 N.3    71  LYS71      -0.1314
@<TRIPOS>BOND
     1   100    98   ar
     2   100   102   ar
     3    98    97   ar
     4   102   101   ar
     5    89    88    2
     6    97    96    1
     7    97    99   ar
     8    88    87    1
     9    88    92   am
    10   105   106    2
    11   105   104    1
    12   101    99   ar
    13    93    96    1
    14    93    94    1
    15    93    92    1
    16    94    95    2
    17    87    90    1
    18    87    86    1
    19   104   103    1
    20   104   107    1
    21    90    91    1
    22   107   108    1
    23    68    66    1
    24   108   110    1
    25   108   109    1
    26    67    66    1
    27    52    51    2
    28    34    33    2
    29    66    63    1
    30    51    50    1
    31    51    53   am
    32    50    47    1
    33    49    48    2
    34    39    36    1
    35    39    40    1
    36    46    47    1
    37    46    37   am
    38    36    37    1
    39    36    35    1
    40    33    35   am
    41    33    32    1
    42    47    48    1
    43    48    54   am
    44    37    38    2
    45    63    62    1
    46    63    64    1
    47    62    56   am
    48    40    41   ar
    49    40    42   ar
    50    32    31    1
    51    54    55    1
    52    56    55    1
    53    56    57    2
    54    65    64    2
    55    64    69   am
    56    55    58    1
    57    41    43   ar
    58    42    44   ar
    59    18    16    1
    60    69    70    1
    61    70    71    1
    62    17    16    1
    63    16    13    1
    64    26    25    2
    65    31    25   am
    66    43    45   ar
    67    44    45   ar
    68    58    60    1
    69    58    59    1
    70    85    83   ar
    71    25    24    1
    72    71    72    2
    73    71    73   am
    74    83    82    1
    75    83    84   ar
    76    13    14    1
    77    13    12    1
    78    15    14    2
    79    59    61    1
    80   125   123   ar
    81   125   126   ar
    82    82    81    1
    83    14    19   am
    84    73    74    1
    85    81    78    1
    86    24    27    1
    87    24    23    1
    88   123   122   ar
    89   126   124   ar
    90    27    28    1
    91    23    21   am
    92    22    21    2
    93    77    78    1
    94    77    75   am
    95    19    20    1
    96    21    20    1
    97    78    79    1
    98    74    75    1
    99   122   124   ar
   100   122   121    1
   101    79    80    2
   102    75    76    2
   103    28    30    1
   104    28    29    1
   105   121   118    1
   106   147   146    1
   107     4     3    2
   108     3     2    1
   109   118   117    1
   110   118   119    1
   111   148   146    1
   112     2     1    1
   113     2     5    1
   114   146   145    1
   115   117   113   am
   116   120   119    2
   117   119   127   am
   118   145   142    1
   119   113   114    2
   120   113   112    1
   121     5     6    1
   122     6     7    1
   123   140   137    1
   124     7     8    1
   125   137   136    1
   126   137   138    1
   127   112   111    1
   128   112   115    1
   129   127   128    1
   130    10     9    1
   131   142   143    1
   132   142   141    1
   133     8     9    2
   134   144   143    2
   135     9    11    1
   136   139   138    2
   137   143   149   am
   138   115   116    1
   139   128   129    1
   140   128   131    1
   141   149   150    1
   142   129   130    2
   143   150   153    1
   144   150   151    1
   145   131   132    1
   146   153   154    1
   147   132   133    1
   148   151   152    2
   149   154   155    1
   150   133   135   ar
   151   133   134   ar
   152   155   156    1
   153   156   157    1
