@<TRIPOS>MOLECULE
tmp/2i0jC00.pdb
 170 161 0 0 0
SMALL
GASTEIGER

@<TRIPOS>ATOM
      1  N         56.2660  135.3890   41.1070 N.3    38  MET38      -0.1245
      2  CA        56.2000  133.9960   40.6820 C.3    38  MET38       0.1570
      3  C         55.5900  133.2090   41.8280 C.2    38  MET38       0.2261
      4  O         54.7460  132.3440   41.6130 O.2    38  MET38      -0.2867
      5  CB        57.5910  133.4360   40.3640 C.3    38  MET38       0.0387
      6  CG        58.1850  133.8870   39.0410 C.3    38  MET38       0.0595
      7  SD        57.0400  133.6190   37.6720 S.3    38  MET38      -0.1393
      8  CE        57.4200  131.9570   37.1980 C.3    38  MET38       0.0692
      9  N         51.9320  133.5840   41.6080 N.3    41  LEU41      -0.1231
     10  CA        51.4370  132.9750   40.3770 C.3    41  LEU41       0.1693
     11  C         51.5570  131.4530   40.3970 C.2    41  LEU41       0.2592
     12  O         50.6110  130.7370   40.0660 O.2    41  LEU41      -0.2718
     13  CB        52.1710  133.5630   39.1760 C.3    41  LEU41       0.0284
     14  CG        51.8490  135.0510   39.0860 C.3    41  LEU41       0.0019
     15  CD1       52.4580  135.6470   37.8330 C.3    41  LEU41       0.0001
     16  CD2       50.3390  135.2320   39.0830 C.3    41  LEU41       0.0001
     17  N         52.7190  130.9640   40.8010 N.am   42  THR42      -0.1953
     18  CA        52.9590  129.5410   40.8810 C.3    42  THR42       0.1897
     19  C         51.9940  128.8870   41.8420 C.2    42  THR42       0.2313
     20  O         51.3630  127.9010   41.5070 O.2    42  THR42      -0.2863
     21  CB        54.3580  129.2620   41.3710 C.3    42  THR42       0.1794
     22  OG1       55.2880  129.5820   40.3360 O.3    42  THR42      -0.2208
     23  CG2       54.5010  127.8060   41.7690 C.3    42  THR42       0.0378
     24  N         49.1700  129.7990   42.7260 N.3    44  LEU44      -0.1231
     25  CA        47.8370  129.8490   42.1450 C.3    44  LEU44       0.1693
     26  C         47.6770  128.7280   41.1220 C.2    44  LEU44       0.2591
     27  O         46.6780  128.0120   41.1300 O.2    44  LEU44      -0.2718
     28  CB        47.6220  131.2010   41.4630 C.3    44  LEU44       0.0284
     29  CG        46.3060  131.3690   40.7240 C.3    44  LEU44       0.0019
     30  CD1       45.1700  131.2260   41.6870 C.3    44  LEU44       0.0001
     31  CD2       46.2850  132.7180   40.0500 C.3    44  LEU44       0.0001
     32  N         48.6640  128.5950   40.2360 N.am   45  ALA45      -0.1980
     33  CA        48.6430  127.5690   39.2030 C.3    45  ALA45       0.1597
     34  C         48.5790  126.1530   39.7910 C.2    45  ALA45       0.2287
     35  O         47.9340  125.2690   39.2160 O.2    45  ALA45      -0.2864
     36  CB        49.8630  127.7110   38.3050 C.3    45  ALA45       0.0319
     37  N         45.0800  125.3600   40.9780 N.3    48  GLU48      -0.1245
     38  CA        44.1700  125.2740   39.8460 C.3    48  GLU48       0.1567
     39  C         44.3180  123.9380   39.1290 C.2    48  GLU48       0.2260
     40  O         43.3360  123.3390   38.6710 O.2    48  GLU48      -0.2867
     41  CB        44.4320  126.4230   38.8800 C.3    48  GLU48       0.0388
     42  CG        43.4940  127.5760   39.1130 C.3    48  GLU48       0.1160
     43  CD        43.6880  128.6920   38.1280 C.2    48  GLU48       0.3649
     44  OE1       44.7800  129.2870   38.1380 O.co2  48  GLU48      -0.2457
     45  OE2       42.7550  128.9710   37.3480 O.co2  48  GLU48      -0.2457
     46  N         48.4930  121.5690   30.0550 N.3    78  TRP78      -0.1227
     47  CA        48.0770  122.2470   31.2740 C.3    78  TRP78       0.1737
     48  C         48.2860  123.7570   31.2500 C.2    78  TRP78       0.2595
     49  O         47.4080  124.5100   31.6950 O.2    78  TRP78      -0.2718
     50  CB        48.7850  121.6650   32.4950 C.3    78  TRP78       0.0564
     51  CG        50.2360  121.9510   32.5220 C.ar   78  TRP78       0.0003
     52  CD1       51.2190  121.2200   31.9450 C.ar   78  TRP78       0.0946
     53  CD2       50.8700  123.0680   33.1380 C.ar   78  TRP78       0.0152
     54  NE1       52.4390  121.8090   32.1640 N.ar   78  TRP78      -0.2442
     55  CE2       52.2480  122.9500   32.8990 C.ar   78  TRP78       0.0810
     56  CE3       50.4050  124.1630   33.8710 C.ar   78  TRP78       0.0012
     57  CZ2       53.1760  123.8870   33.3680 C.ar   78  TRP78       0.0191
     58  CZ3       51.3220  125.0960   34.3380 C.ar   78  TRP78       0.0001
     59  CH2       52.6960  124.9490   34.0850 C.ar   78  TRP78       0.0015
     60  N         49.4320  124.2090   30.7440 N.am   79  LEU79      -0.1980
     61  CA        49.6810  125.6450   30.7170 C.3    79  LEU79       0.1596
     62  C         48.8140  126.3430   29.6560 C.2    79  LEU79       0.2287
     63  O         48.3210  127.4460   29.8900 O.2    79  LEU79      -0.2864
     64  CB        51.1700  125.9450   30.5040 C.3    79  LEU79       0.0297
     65  CG        51.5420  127.4030   30.7620 C.3    79  LEU79       0.0022
     66  CD1       50.9180  127.8620   32.0550 C.3    79  LEU79       0.0001
     67  CD2       53.0480  127.5650   30.7930 C.3    79  LEU79       0.0001
     68  N         45.5300  126.6930   31.3080 N.3    82  LEU82      -0.1231
     69  CA        45.5360  127.7090   32.3450 C.3    82  LEU82       0.1693
     70  C         45.5150  129.0800   31.6890 C.2    82  LEU82       0.2591
     71  O         44.8050  129.9720   32.1280 O.2    82  LEU82      -0.2718
     72  CB        46.7890  127.5900   33.2170 C.3    82  LEU82       0.0284
     73  CG        46.8660  126.5180   34.2980 C.3    82  LEU82       0.0019
     74  CD1       48.1060  126.7730   35.1530 C.3    82  LEU82       0.0001
     75  CD2       45.6170  126.5620   35.1500 C.3    82  LEU82       0.0001
     76  N         46.2910  129.2480   30.6300 N.am   83  MET83      -0.1979
     77  CA        46.3300  130.5350   29.9650 C.3    83  MET83       0.1605
     78  C         45.0170  130.9310   29.2860 C.2    83  MET83       0.2287
     79  O         44.5440  132.0540   29.4690 O.2    83  MET83      -0.2864
     80  CB        47.4940  130.5940   28.9640 C.3    83  MET83       0.0413
     81  CG        48.8630  130.5810   29.6310 C.3    83  MET83       0.0598
     82  SD        50.2450  130.8500   28.4960 S.3    83  MET83      -0.1393
     83  CE        51.5090  131.2770   29.6100 C.3    83  MET83       0.0692
     84  N         42.8900  132.2270   31.7690 N.3    86  LEU86      -0.1245
     85  CA        43.2360  133.5870   32.1450 C.3    86  LEU86       0.1561
     86  C         42.7040  134.5160   31.0820 C.2    86  LEU86       0.2260
     87  O         41.7740  135.2820   31.3160 O.2    86  LEU86      -0.2867
     88  CB        44.7450  133.7660   32.2430 C.3    86  LEU86       0.0270
     89  CG        45.2070  135.2060   32.5130 C.3    86  LEU86       0.0019
     90  CD1       44.5500  135.7180   33.7880 C.3    86  LEU86       0.0001
     91  CD2       46.7150  135.2500   32.6460 C.3    86  LEU86       0.0001
     92  N         39.0370  135.3400   31.5040 N.3    89  ARG89      -0.1245
     93  CA        38.5010  136.1790   32.5690 C.3    89  ARG89       0.1563
     94  C         39.1080  137.5850   32.5910 C.2    89  ARG89       0.2260
     95  O         38.6390  138.4580   33.3180 O.2    89  ARG89      -0.2867
     96  CB        38.6560  135.4790   33.9230 C.3    89  ARG89       0.0307
     97  CG        39.9940  134.8370   34.1710 C.3    89  ARG89       0.0489
     98  CD        39.9870  134.1270   35.5170 C.3    89  ARG89       0.2205
     99  NE        41.3410  133.7890   35.9410 N.pl3  89  ARG89      -0.0865
    100  CZ        42.0490  132.7830   35.4480 C.cat  89  ARG89       0.5346
    101  NH1       41.5230  132.0040   34.5220 N.pl3  89  ARG89       0.1354
    102  NH2       43.2930  132.5820   35.8530 N.pl3  89  ARG89       0.1354
    103  N         44.4360  137.3800   36.9290 N.3    99  PHE99      -0.1241
    104  CA        44.8900  136.0650   37.3720 C.3    99  PHE99       0.1605
    105  C         43.8900  135.5280   38.3750 C.2    99  PHE99       0.2264
    106  O         43.4640  134.3870   38.2850 O.2    99  PHE99      -0.2867
    107  CB        46.2710  136.1610   38.0050 C.3    99  PHE99       0.0534
    108  CG        47.3790  136.3210   37.0080 C.ar   99  PHE99      -0.0203
    109  CD1       47.9300  135.2110   36.3710 C.ar   99  PHE99      -0.0042
    110  CD2       47.8760  137.5810   36.7000 C.ar   99  PHE99      -0.0042
    111  CE1       48.9710  135.3560   35.4380 C.ar   99  PHE99      -0.0003
    112  CE2       48.9200  137.7470   35.7660 C.ar   99  PHE99      -0.0003
    113  CZ        49.4670  136.6300   35.1360 C.ar   99  PHE99      -0.0000
    114  N         58.9230  138.1440   32.0830 N.3   116  MET116     -0.1245
    115  CA        57.5040  138.0490   32.2740 C.3   116  MET116      0.1570
    116  C         56.7370  139.0740   31.5120 C.2   116  MET116      0.2261
    117  O         55.5810  138.8250   31.1880 O.2   116  MET116     -0.2867
    118  CB        57.1630  138.0850   33.7740 C.3   116  MET116      0.0387
    119  CG        55.7090  137.6570   34.0520 C.3   116  MET116      0.0595
    120  SD        55.5600  137.8580   35.7940 S.3   116  MET116     -0.1393
    121  CE        56.5290  136.4210   36.3280 C.3   116  MET116      0.0692
    122  N         55.6210  137.7490   27.8880 N.3   119  ILE119     -0.1231
    123  CA        54.5030  136.8300   28.0940 C.3   119  ILE119      0.1692
    124  C         53.2860  137.6950   28.3360 C.2   119  ILE119      0.2592
    125  O         52.3260  137.6520   27.5820 O.2   119  ILE119     -0.2718
    126  CB        54.6990  135.9480   29.3440 C.3   119  ILE119      0.0266
    127  CG1       56.0190  135.1750   29.2450 C.3   119  ILE119      0.0019
    128  CG2       53.5120  135.0030   29.5160 C.3   119  ILE119      0.0020
    129  CD1       56.0460  134.1130   28.1890 C.3   119  ILE119      0.0001
    130  N         53.3450  138.4860   29.3980 N.am  120  PHE120     -0.1976
    131  CA        52.2730  139.4000   29.7830 C.3   120  PHE120      0.1639
    132  C         51.6700  140.1310   28.5980 C.2   120  PHE120      0.2290
    133  O         50.4420  140.2180   28.4520 O.2   120  PHE120     -0.2864
    134  CB        52.8190  140.4350   30.7530 C.3   120  PHE120      0.0560
    135  CG        52.2430  140.3410   32.1270 C.ar  120  PHE120     -0.0200
    136  CD1       51.1960  141.1750   32.5040 C.ar  120  PHE120     -0.0042
    137  CD2       52.7670  139.4350   33.0600 C.ar  120  PHE120     -0.0042
    138  CE1       50.6760  141.1140   33.7900 C.ar  120  PHE120     -0.0003
    139  CE2       52.2610  139.3600   34.3460 C.ar  120  PHE120     -0.0003
    140  CZ        51.2140  140.2010   34.7170 C.ar  120  PHE120     -0.0000
    141  N         49.6610  137.6560   26.4590 N.3   123  LEU123     -0.1245
    142  CA        48.3870  137.3250   27.0870 C.3   123  LEU123      0.1561
    143  C         47.4210  138.4650   26.9020 C.2   123  LEU123      0.2260
    144  O         46.2660  138.2600   26.5220 O.2   123  LEU123     -0.2867
    145  CB        48.5680  137.0450   28.5800 C.3   123  LEU123      0.0270
    146  CG        49.3020  135.7400   28.8480 C.3   123  LEU123      0.0019
    147  CD1       49.7250  135.6850   30.2910 C.3   123  LEU123      0.0001
    148  CD2       48.3910  134.5630   28.4570 C.3   123  LEU123      0.0001
    149  N         56.0080  130.3910   28.0590 N.3   216  GLY216     -0.1225
    150  CA        55.7680  130.2940   29.4820 C.3   216  GLY216      0.1811
    151  C         56.5740  129.1840   30.1280 C.2   216  GLY216      0.2280
    152  O         56.9270  129.2820   31.2950 O.2   216  GLY216     -0.2866
    153  N         60.5520  129.9850   30.3830 N.3   219  HIS219     -0.1226
    154  CA        60.6460  130.9230   31.4820 C.3   219  HIS219      0.1752
    155  C         60.5800  130.1380   32.7740 C.2   219  HIS219      0.2595
    156  O         61.4460  130.2680   33.6260 O.2   219  HIS219     -0.2718
    157  CB        59.4920  131.9340   31.3900 C.3   219  HIS219      0.0759
    158  CG        59.5060  132.9700   32.4690 C.ar  219  HIS219      0.0818
    159  ND1       58.6200  132.9500   33.5310 N.ar  219  HIS219     -0.2268
    160  CD2       60.2700  134.0760   32.6320 C.ar  219  HIS219      0.1154
    161  CE1       58.8330  134.0030   34.2990 C.ar  219  HIS219      0.1986
    162  NE2       59.8290  134.7010   33.7750 N.ar  219  HIS219     -0.2212
    163  N         59.5550  129.3140   32.9170 N.am  220  LEU220     -0.1980
    164  CA        59.4210  128.5240   34.1110 C.3   220  LEU220      0.1596
    165  C         60.6920  127.7100   34.3340 C.2   220  LEU220      0.2287
    166  O         61.1580  127.5910   35.4610 O.2   220  LEU220     -0.2864
    167  CB        58.2180  127.6130   33.9900 C.3   220  LEU220      0.0297
    168  CG        57.9510  126.8830   35.2900 C.3   220  LEU220      0.0022
    169  CD1       57.9510  127.8810   36.4380 C.3   220  LEU220      0.0001
    170  CD2       56.6200  126.1460   35.1960 C.3   220  LEU220      0.0001
@<TRIPOS>BOND
     1   141   142    1
     2   144   143    2
     3   143   142    1
     4   142   145    1
     5   125   124    2
     6   122   123    1
     7   149   150    1
     8   123   124    1
     9   123   126    1
    10   129   127    1
    11   124   130   am
    12   133   132    2
    13   148   146    1
    14    82    83    1
    15    82    81    1
    16   145   146    1
    17   132   131    1
    18   146   147    1
    19    80    81    1
    20    80    77    1
    21   127   126    1
    22    78    79    2
    23    78    77    1
    24   126   128    1
    25   130   131    1
    26   150   151    1
    27    62    63    2
    28    62    61    1
    29   131   134    1
    30    77    76    1
    31    46    47    1
    32   151   152    2
    33   153   154    1
    34    64    61    1
    35    64    65    1
    36    76    70   am
    37    61    60    1
    38    60    48   am
    39   134   135    1
    40    65    67    1
    41    65    66    1
    42    86    87    2
    43    86    85    1
    44   117   116    2
    45    48    47    1
    46    48    49    2
    47    47    50    1
    48    68    69    1
    49   157   154    1
    50   157   158    1
    51   154   155    1
    52    92    93    1
    53   116   115    1
    54    70    71    2
    55    70    69    1
    56    84    85    1
    57    52    54   ar
    58    52    51   ar
    59   114   115    1
    60   135   136   ar
    61   135   137   ar
    62    85    88    1
    63    54    55   ar
    64    88    89    1
    65   115   118    1
    66    69    72    1
    67   158   160   ar
    68   158   159   ar
    69    50    51    1
    70   136   138   ar
    71    89    91    1
    72    89    90    1
    73    51    53   ar
    74    93    94    1
    75    93    96    1
    76    94    95    2
    77   160   162   ar
    78   155   163   am
    79   155   156    2
    80    55    53   ar
    81    55    57   ar
    82   163   164    1
    83   137   139   ar
    84    53    56   ar
    85    72    73    1
    86    57    59   ar
    87   159   161   ar
    88   118   119    1
    89   162   161   ar
    90   138   140   ar
    91    56    58   ar
    92    96    97    1
    93   167   164    1
    94   167   168    1
    95   119   120    1
    96    59    58   ar
    97   164   165    1
    98    97    98    1
    99    73    75    1
   100    73    74    1
   101   165   166    2
   102   139   140   ar
   103   101   100    1
   104   113   111   ar
   105   113   112   ar
   106   170   168    1
   107   168   169    1
   108   111   109   ar
   109   100   102    1
   110   100    99    2
   111    98    99    1
   112   112   110   ar
   113   120   121    1
   114   109   108   ar
   115   110   108   ar
   116   103   104    1
   117   108   107    1
   118     8     7    1
   119    45    43   ar
   120   104   107    1
   121   104   105    1
   122     7     6    1
   123    15    14    1
   124    43    44   ar
   125    43    42    1
   126   106   105    2
   127    36    33    1
   128    40    39    2
   129    41    42    1
   130    41    38    1
   131     6     5    1
   132    16    14    1
   133    14    13    1
   134    39    38    1
   135    13    10    1
   136    33    34    1
   137    33    32    1
   138    35    34    2
   139    38    37    1
   140    31    29    1
   141    12    11    2
   142    32    26   am
   143    22    21    1
   144     5     2    1
   145    10    11    1
   146    10     9    1
   147    11    17   am
   148     2     1    1
   149     2     3    1
   150    29    28    1
   151    29    30    1
   152    17    18    1
   153    18    21    1
   154    18    19    1
   155    26    27    2
   156    26    25    1
   157    21    23    1
   158    28    25    1
   159    20    19    2
   160     4     3    2
   161    25    24    1
