@<TRIPOS>MOLECULE
tmp/2i0lC00.pdb
 140 134 0 0 0
SMALL
GASTEIGER

@<TRIPOS>ATOM
      1  N        -11.0170   -9.8290   -0.5230 N.3     6  LYS6       -0.1245
      2  CA       -11.8230   -9.5830    0.6540 C.3     6  LYS6        0.1561
      3  C        -12.6920   -8.3660    0.4040 C.2     6  LYS6        0.2260
      4  O        -12.2430   -7.3870   -0.1850 O.2     6  LYS6       -0.2867
      5  CB       -10.8930   -9.3550    1.8500 C.3     6  LYS6        0.0271
      6  CG       -11.4710   -9.6830    3.2240 C.3     6  LYS6        0.0035
      7  CD       -10.3730   -9.5420    4.2910 C.3     6  LYS6        0.0206
      8  CE       -10.8330   -9.9830    5.6700 C.3     6  LYS6        0.1093
      9  NZ        -9.7540   -9.7840    6.6660 N.3     6  LYS6       -0.1314
     10  N        -16.9920   -5.9790    4.0740 N.3     9  LYS9       -0.1231
     11  CA       -17.5280   -6.7810    5.1580 C.3     9  LYS9        0.1693
     12  C        -16.8730   -8.1560    5.2660 C.2     9  LYS9        0.2593
     13  O        -17.3080   -8.9990    6.0530 O.2     9  LYS9       -0.2718
     14  CB       -19.0450   -6.9380    5.0020 C.3     9  LYS9        0.0285
     15  CG       -19.8290   -5.6550    5.2420 C.3     9  LYS9        0.0035
     16  CD       -21.3200   -5.9310    5.3430 C.3     9  LYS9        0.0206
     17  CE       -22.0990   -4.6840    5.7310 C.3     9  LYS9        0.1093
     18  NZ       -21.6240   -4.1210    7.0200 N.3     9  LYS9       -0.1314
     19  N        -15.8270   -8.3900    4.4800 N.am   10  GLY10      -0.1942
     20  CA       -15.1540   -9.6710    4.5630 C.3    10  GLY10       0.2014
     21  C        -15.1810  -10.5250    3.3160 C.2    10  GLY10       0.2639
     22  O        -15.2910  -10.0160    2.1920 O.2    10  GLY10      -0.2714
     23  N        -15.0950  -11.8380    3.5180 N.am   11  LEU11      -0.1963
     24  CA       -15.0780  -12.7800    2.4110 C.3    11  LEU11       0.1728
     25  C        -16.4430  -13.0980    1.8270 C.2    11  LEU11       0.2617
     26  O        -16.5460  -13.4600    0.6610 O.2    11  LEU11      -0.2715
     27  CB       -14.3910  -14.0680    2.8450 C.3    11  LEU11       0.0311
     28  CG       -13.0030  -13.8150    3.4260 C.3    11  LEU11       0.0022
     29  CD1      -12.4310  -15.1090    3.9360 C.3    11  LEU11       0.0001
     30  CD2      -12.0930  -13.2050    2.3570 C.3    11  LEU11       0.0001
     31  N        -17.4910  -12.9770    2.6250 N.am   12  GLY12      -0.1940
     32  CA       -18.8130  -13.2560    2.0890 C.3    12  GLY12       0.2014
     33  C        -19.3910  -14.6660    2.2150 C.2    12  GLY12       0.2639
     34  O        -20.1620  -15.0870    1.3550 O.2    12  GLY12      -0.2714
     35  N        -19.0050  -15.4170    3.2460 N.am   13  PHE13      -0.1959
     36  CA       -19.5880  -16.7410    3.4690 C.3    13  PHE13       0.1771
     37  C        -19.5820  -17.0310    4.9530 C.2    13  PHE13       0.2620
     38  O        -18.9830  -16.2910    5.7190 O.2    13  PHE13      -0.2715
     39  CB       -18.8640  -17.8490    2.6770 C.3    13  PHE13       0.0574
     40  CG       -17.4050  -18.0050    3.0010 C.ar   13  PHE13      -0.0200
     41  CD1      -16.9930  -18.6840    4.1480 C.ar   13  PHE13      -0.0042
     42  CD2      -16.4340  -17.5100    2.1280 C.ar   13  PHE13      -0.0042
     43  CE1      -15.6270  -18.8640    4.4190 C.ar   13  PHE13      -0.0003
     44  CE2      -15.0690  -17.6830    2.3870 C.ar   13  PHE13      -0.0003
     45  CZ       -14.6600  -18.3650    3.5310 C.ar   13  PHE13      -0.0000
     46  N        -20.2740  -18.0840    5.3590 N.am   14  SER14      -0.1936
     47  CA       -20.3550  -18.4640    6.7560 C.3    14  SER14       0.2055
     48  C        -19.9050  -19.9130    6.8970 C.2    14  SER14       0.2643
     49  O        -20.0750  -20.7120    5.9750 O.2    14  SER14      -0.2714
     50  CB       -21.7890  -18.3230    7.2410 C.3    14  SER14       0.2130
     51  OG       -22.2220  -16.9870    7.1010 O.3    14  SER14      -0.2179
     52  N        -19.3270  -20.2600    8.0400 N.am   15  ILE15      -0.1963
     53  CA       -18.8680  -21.6280    8.2330 C.3    15  ILE15       0.1727
     54  C        -19.3950  -22.3140    9.4840 C.2    15  ILE15       0.2616
     55  O        -19.6570  -21.6750   10.5130 O.2    15  ILE15      -0.2715
     56  CB       -17.3480  -21.7120    8.3290 C.3    15  ILE15       0.0290
     57  CG1      -16.8940  -21.1020    9.6600 C.3    15  ILE15       0.0022
     58  CG2      -16.7200  -21.0490    7.1400 C.3    15  ILE15       0.0023
     59  CD1      -15.4120  -21.2460    9.9470 C.3    15  ILE15       0.0001
     60  N        -19.5130  -23.6320    9.3780 N.am   16  ALA16      -0.1977
     61  CA       -19.9550  -24.4780   10.4700 C.3    16  ALA16       0.1597
     62  C        -18.9820  -25.6520   10.5170 C.2    16  ALA16       0.2287
     63  O        -18.1760  -25.8380    9.6020 O.2    16  ALA16      -0.2864
     64  CB       -21.3680  -24.9710   10.2110 C.3    16  ALA16       0.0319
     65  N        -17.6940  -29.0670   17.5070 N.3    21  ASN21      -0.1240
     66  CA       -18.8740  -28.4020   17.0070 C.3    21  ASN21       0.1653
     67  C        -19.1200  -29.0270   15.6240 C.2    21  ASN21       0.2266
     68  O        -19.2990  -28.2980   14.6470 O.2    21  ASN21      -0.2867
     69  CB       -18.5810  -26.8910   16.9140 C.3    21  ASN21       0.1155
     70  CG       -19.7170  -26.1030   16.2990 C.2    21  ASN21       0.2627
     71  OD1      -20.8530  -26.1480   16.7730 O.2    21  ASN21      -0.2716
     72  ND2      -19.4140  -25.3720   15.2280 N.am   21  ASN21      -0.0877
     73  N        -20.4600  -30.6750   12.2530 N.3    23  HIS23      -0.1241
     74  CA       -21.5820  -30.3930   11.3850 C.3    23  HIS23       0.1621
     75  C        -22.2660  -31.7220   11.1830 C.2    23  HIS23       0.2264
     76  O        -23.4850  -31.7970   11.1140 O.2    23  HIS23      -0.2867
     77  CB       -21.0940  -29.8330   10.0540 C.3    23  HIS23       0.0745
     78  CG       -22.1550  -29.1310    9.2760 C.ar   23  HIS23       0.0817
     79  ND1      -23.0400  -28.2490    9.8600 N.ar   23  HIS23      -0.2268
     80  CD2      -22.4580  -29.1500    7.9570 C.ar   23  HIS23       0.1154
     81  CE1      -23.8410  -27.7550    8.9330 C.ar   23  HIS23       0.1986
     82  NE2      -23.5080  -28.2860    7.7700 N.ar   23  HIS23      -0.2212
     83  N        -21.6850  -23.1270    5.0210 N.3    33  THR33      -0.1203
     84  CA       -23.1270  -23.2500    5.1230 C.3    33  THR33       0.1994
     85  C        -23.8570  -22.0380    4.5770 C.2    33  THR33       0.2617
     86  O        -25.0820  -21.9650    4.6600 O.2    33  THR33      -0.2717
     87  CB       -23.5960  -23.4600    6.5700 C.3    33  THR33       0.1784
     88  OG1      -23.0790  -22.4170    7.3970 O.3    33  THR33      -0.2211
     89  CG2      -23.1450  -24.8040    7.0830 C.3    33  THR33       0.0376
     90  N        -23.1230  -21.0770    4.0300 N.am   34  LYS34      -0.1979
     91  CA       -23.7780  -19.9060    3.4670 C.3    34  LYS34       0.1596
     92  C        -22.8590  -18.9770    2.6920 C.2    34  LYS34       0.2287
     93  O        -21.7080  -18.7660    3.0610 O.2    34  LYS34      -0.2864
     94  CB       -24.4940  -19.1090    4.5640 C.3    34  LYS34       0.0298
     95  CG       -25.2280  -17.8770    4.0300 C.3    34  LYS34       0.0038
     96  CD       -26.0570  -17.1740    5.0980 C.3    34  LYS34       0.0206
     97  CE       -26.7080  -15.9180    4.5290 C.3    34  LYS34       0.1093
     98  NZ       -27.5630  -16.2430    3.3460 N.3    34  LYS34      -0.1314
     99  N        -22.9560  -15.0970    0.9310 N.3    36  ILE36      -0.1245
    100  CA       -23.6760  -13.8320    0.8630 C.3    36  ILE36       0.1561
    101  C        -23.8490  -13.3400   -0.5730 C.2    36  ILE36       0.2260
    102  O        -22.8770  -13.2090   -1.3090 O.2    36  ILE36      -0.2867
    103  CB       -22.9400  -12.7850    1.6970 C.3    36  ILE36       0.0252
    104  CG1      -22.7720  -13.3170    3.1190 C.3    36  ILE36       0.0019
    105  CG2      -23.7100  -11.4810    1.7140 C.3    36  ILE36       0.0019
    106  CD1      -21.8690  -12.4760    3.9810 C.3    36  ILE36       0.0001
    107  N        -13.5450  -24.8310   15.5870 N.3    66  HIS66      -0.1241
    108  CA       -14.2440  -23.7250   14.9650 C.3    66  HIS66       0.1621
    109  C        -13.4480  -22.4550   15.2590 C.2    66  HIS66       0.2264
    110  O        -13.1290  -21.6890   14.3510 O.2    66  HIS66      -0.2867
    111  CB       -15.6580  -23.6010   15.5430 C.3    66  HIS66       0.0745
    112  CG       -16.5930  -22.8060   14.6890 C.ar   66  HIS66       0.0817
    113  ND1      -17.0820  -23.2740   13.4830 N.ar   66  HIS66      -0.2268
    114  CD2      -17.1140  -21.5660   14.8410 C.ar   66  HIS66       0.1154
    115  CE1      -17.8580  -22.3590   12.9410 C.ar   66  HIS66       0.1986
    116  NE2      -17.8960  -21.3080   13.7440 N.ar   66  HIS66      -0.2212
    117  N        -12.0170  -19.8400   12.6030 N.3    70  VAL70      -0.1245
    118  CA       -12.4480  -18.4500   12.5610 C.3    70  VAL70       0.1561
    119  C        -11.2180  -17.5360   12.5930 C.2    70  VAL70       0.2260
    120  O        -11.0340  -16.6810   11.7230 O.2    70  VAL70      -0.2867
    121  CB       -13.3790  -18.1160   13.7480 C.3    70  VAL70       0.0252
    122  CG1      -13.8000  -16.6540   13.6930 C.3    70  VAL70       0.0019
    123  CG2      -14.6070  -18.9990   13.7000 C.3    70  VAL70       0.0019
    124  N         -9.5080  -17.4820    9.3690 N.3    73  LEU73      -0.1231
    125  CA       -10.2250  -16.7390    8.3480 C.3    73  LEU73       0.1693
    126  C        -10.3010  -15.2530    8.7310 C.2    73  LEU73       0.2591
    127  O        -10.4240  -14.3780    7.8670 O.2    73  LEU73      -0.2718
    128  CB       -11.6340  -17.3070    8.1880 C.3    73  LEU73       0.0284
    129  CG       -11.7880  -18.7670    7.7460 C.3    73  LEU73       0.0019
    130  CD1      -13.1870  -19.2390    8.0500 C.3    73  LEU73       0.0001
    131  CD2      -11.5250  -18.8930    6.2780 C.3    73  LEU73       0.0001
    132  N        -10.0040  -15.1010    9.9710 N.am   74  LYS74      -0.1980
    133  CA        -9.9460  -13.6800   10.3060 C.3    74  LYS74       0.1596
    134  C         -8.5230  -13.1290   10.2360 C.2    74  LYS74       0.2287
    135  O         -8.3070  -11.9190   10.2590 O.2    74  LYS74      -0.2864
    136  CB       -10.5130  -13.4270   11.7030 C.3    74  LYS74       0.0298
    137  CG       -12.0300  -13.3860   11.7400 C.3    74  LYS74       0.0038
    138  CD       -12.5440  -12.0570   11.2060 C.3    74  LYS74       0.0206
    139  CE       -14.0450  -12.0870   10.9360 C.3    74  LYS74       0.1093
    140  NZ       -14.3780  -12.8530    9.6950 N.3    74  LYS74      -0.1314
@<TRIPOS>BOND
     1   102   101    2
     2   101   100    1
     3     1     2    1
     4     4     3    2
     5     3     2    1
     6     2     5    1
     7    26    25    2
     8   100    99    1
     9   100   103    1
    10    34    33    2
    11   103   105    1
    12   103   104    1
    13    25    24    1
    14    25    31   am
    15     5     6    1
    16    32    33    1
    17    32    31    1
    18    42    44   ar
    19    42    40   ar
    20    22    21    2
    21    33    35   am
    22    30    28    1
    23    44    45   ar
    24    24    27    1
    25    24    23    1
    26    39    40    1
    27    39    36    1
    28    92    93    2
    29    92    91    1
    30    27    28    1
    31    40    41   ar
    32   104   106    1
    33     6     7    1
    34    35    36    1
    35    21    23   am
    36    21    20    1
    37    98    97    1
    38    28    29    1
    39    91    90    1
    40    91    94    1
    41    36    37    1
    42    45    43   ar
    43    90    85   am
    44    95    94    1
    45    95    96    1
    46    10    11    1
    47    41    43   ar
    48     7     8    1
    49    19    20    1
    50    19    12   am
    51    97    96    1
    52    85    86    2
    53    85    84    1
    54    37    46   am
    55    37    38    2
    56    14    11    1
    57    14    15    1
    58    83    84    1
    59    84    87    1
    60    11    12    1
    61    15    16    1
    62    12    13    2
    63    16    17    1
    64    46    47    1
    65     8     9    1
    66    17    18    1
    67    49    48    2
    68   131   129    1
    69    87    89    1
    70    87    88    1
    71    47    48    1
    72    47    50    1
    73    48    52   am
    74    51    50    1
    75    58    56    1
    76   129   130    1
    77   129   128    1
    78    82    80   ar
    79    82    81   ar
    80   127   126    2
    81    80    78   ar
    82    52    53    1
    83   128   125    1
    84    53    56    1
    85    53    54    1
    86    56    57    1
    87   125   126    1
    88   125   124    1
    89   126   132   am
    90    81    79   ar
    91    78    79   ar
    92    78    77    1
    93    60    54   am
    94    60    61    1
    95    54    55    2
    96    63    62    2
    97    57    59    1
    98   140   139    1
    99   132   133    1
   100    77    74    1
   101    64    61    1
   102   134   135    2
   103   134   133    1
   104   133   136    1
   105    61    62    1
   106   139   138    1
   107    76    75    2
   108    75    74    1
   109   138   137    1
   110    74    73    1
   111   136   137    1
   112   120   119    2
   113   118   119    1
   114   118   117    1
   115   118   121    1
   116   115   113   ar
   117   115   116   ar
   118   113   112   ar
   119   122   121    1
   120   123   121    1
   121   116   114   ar
   122   110   109    2
   123    68    67    2
   124   112   114   ar
   125   112   111    1
   126   108   109    1
   127   108   111    1
   128   108   107    1
   129    72    70   am
   130    67    66    1
   131    70    71    2
   132    70    69    1
   133    69    66    1
   134    66    65    1
