@<TRIPOS>MOLECULE
tmp/2i0lA00.pdb
 134 129 0 0 0
SMALL
GASTEIGER

@<TRIPOS>ATOM
      1  N          2.5960  -15.5270   18.5730 N.3     9  LYS9       -0.1231
      2  CA         1.5240  -14.8070   19.2580 C.3     9  LYS9        0.1696
      3  C          1.3050  -13.4060   18.7340 C.2     9  LYS9        0.2632
      4  O          0.3140  -12.7680   19.0700 O.2     9  LYS9       -0.2714
      5  CB         1.7320  -14.7150   20.7690 C.3     9  LYS9        0.0285
      6  CG         0.4360  -14.2900   21.4960 C.3     9  LYS9        0.0035
      7  CD         0.6480  -13.7220   22.8990 C.3     9  LYS9        0.0206
      8  CE         1.4070  -12.3960   22.8820 C.3     9  LYS9        0.1093
      9  NZ         2.8560  -12.5680   22.5480 N.3     9  LYS9       -0.1314
     10  N          2.2120  -12.8990   17.9190 N.am   10  GLY10      -0.1718
     11  CA         1.9570  -11.5700   17.4160 C.2    10  GLY10       0.1480
     12  C          3.0930  -10.8270   16.7790 C.2    10  GLY10       0.2820
     13  O          4.1180  -11.3940   16.3860 O.2    10  GLY10      -0.2669
     14  N          2.8760   -9.5250   16.6740 N.am   11  LEU11      -0.1929
     15  CA         3.8390   -8.6150   16.0950 C.3    11  LEU11       0.1731
     16  C          4.9900   -8.4390   17.0780 C.2    11  LEU11       0.2617
     17  O          6.1000   -8.0840   16.6850 O.2    11  LEU11      -0.2715
     18  CB         3.1470   -7.2830   15.8260 C.3    11  LEU11       0.0311
     19  CG         1.8770   -7.5180   14.9980 C.3    11  LEU11       0.0022
     20  CD1        0.8440   -6.4790   15.3080 C.3    11  LEU11       0.0001
     21  CD2        2.2210   -7.5270   13.5140 C.3    11  LEU11       0.0001
     22  N          4.7150   -8.6880   18.3610 N.am   12  GLY12      -0.1940
     23  CA         5.7430   -8.5540   19.3790 C.3    12  GLY12       0.2014
     24  C          5.9120   -7.1880   20.0500 C.2    12  GLY12       0.2639
     25  O          7.0440   -6.7870   20.3410 O.2    12  GLY12      -0.2714
     26  N          4.8090   -6.4720   20.2820 N.am   13  PHE13      -0.1959
     27  CA         4.8360   -5.1690   20.9600 C.3    13  PHE13       0.1771
     28  C          3.4740   -4.8690   21.5830 C.2    13  PHE13       0.2620
     29  O          2.4750   -5.4640   21.1910 O.2    13  PHE13      -0.2715
     30  CB         5.2580   -4.0440   19.9940 C.3    13  PHE13       0.0574
     31  CG         4.1890   -3.6110   19.0170 C.ar   13  PHE13      -0.0200
     32  CD1        3.1720   -2.7330   19.4090 C.ar   13  PHE13      -0.0042
     33  CD2        4.2430   -4.0190   17.6850 C.ar   13  PHE13      -0.0042
     34  CE1        2.2350   -2.2660   18.4810 C.ar   13  PHE13      -0.0003
     35  CE2        3.2980   -3.5520   16.7410 C.ar   13  PHE13      -0.0003
     36  CZ         2.3010   -2.6770   17.1430 C.ar   13  PHE13      -0.0000
     37  N          3.4360   -3.9620   22.5600 N.am   14  SER14      -0.1936
     38  CA         2.1870   -3.6190   23.2420 C.3    14  SER14       0.2055
     39  C          1.7860   -2.1600   23.0340 C.2    14  SER14       0.2643
     40  O          2.6380   -1.2890   22.8210 O.2    14  SER14      -0.2714
     41  CB         2.3100   -3.8990   24.7430 C.3    14  SER14       0.2130
     42  OG         2.4600   -5.2850   25.0030 O.3    14  SER14      -0.2179
     43  N          0.4870   -1.8880   23.1210 N.am   15  ILE15      -0.1963
     44  CA         0.0040   -0.5400   22.8920 C.3    15  ILE15       0.1727
     45  C         -0.9130    0.0720   23.9470 C.2    15  ILE15       0.2616
     46  O         -1.6400   -0.6350   24.6490 O.2    15  ILE15      -0.2715
     47  CB        -0.7430   -0.4670   21.5370 C.3    15  ILE15       0.0290
     48  CG1       -1.9670   -1.3880   21.5570 C.3    15  ILE15       0.0022
     49  CG2        0.1680   -0.8880   20.4160 C.3    15  ILE15       0.0023
     50  CD1       -2.8340   -1.2560   20.3100 C.3    15  ILE15       0.0001
     51  N         -0.8730    1.4050   24.0360 N.am   16  ALA16      -0.1963
     52  CA        -1.7350    2.1700   24.9470 C.3    16  ALA16       0.1728
     53  C         -2.2470    3.3350   24.1360 C.2    16  ALA16       0.2616
     54  O         -1.6810    3.6570   23.0950 O.2    16  ALA16      -0.2715
     55  CB        -0.9620    2.6920   26.1550 C.3    16  ALA16       0.0334
     56  N         -3.3060    3.9770   24.6120 N.am   17  GLY17      -0.1955
     57  CA        -3.8510    5.1030   23.8880 C.3    17  GLY17       0.1869
     58  C         -5.1930    4.8050   23.2510 C.2    17  GLY17       0.2309
     59  O         -5.7710    3.7380   23.4710 O.2    17  GLY17      -0.2863
     60  N         -9.3660    6.6280   26.1630 N.3    21  ASN21      -0.1240
     61  CA        -8.2940    6.1710   27.0320 C.3    21  ASN21       0.1653
     62  C         -7.0120    6.8600   26.5850 C.2    21  ASN21       0.2266
     63  O         -6.0360    6.2200   26.1880 O.2    21  ASN21      -0.2867
     64  CB        -8.1710    4.6530   26.9050 C.3    21  ASN21       0.1155
     65  CG        -8.0310    3.9620   28.2460 C.2    21  ASN21       0.2627
     66  OD1       -6.9270    3.8280   28.7700 O.2    21  ASN21      -0.2716
     67  ND2       -9.1560    3.5260   28.8150 N.am   21  ASN21      -0.0877
     68  N          4.1800    1.0730   23.8620 N.3    33  THR33      -0.1203
     69  CA         4.7170    1.1340   25.2140 C.3    33  THR33       0.1994
     70  C          5.7470    0.0510   25.5270 C.2    33  THR33       0.2617
     71  O          6.6160    0.2560   26.3750 O.2    33  THR33      -0.2717
     72  CB         3.5900    1.0790   26.2610 C.3    33  THR33       0.1784
     73  OG1        2.7160   -0.0150   25.9740 O.3    33  THR33      -0.2211
     74  CG2        2.7880    2.3760   26.2400 C.3    33  THR33       0.0376
     75  N          5.6640   -1.0940   24.8560 N.am   34  LYS34      -0.1979
     76  CA         6.6410   -2.1580   25.0910 C.3    34  LYS34       0.1596
     77  C          6.9610   -2.9720   23.8420 C.2    34  LYS34       0.2287
     78  O          6.1130   -3.1620   22.9750 O.2    34  LYS34      -0.2864
     79  CB         6.1610   -3.1000   26.2020 C.3    34  LYS34       0.0298
     80  CG         7.0720   -4.3000   26.4390 C.3    34  LYS34       0.0038
     81  CD         6.5410   -5.2060   27.5560 C.3    34  LYS34       0.0206
     82  CE         7.3370   -6.5050   27.6390 C.3    34  LYS34       0.1093
     83  NZ         8.7810   -6.2720   27.9310 N.3    34  LYS34      -0.1314
     84  N          8.4780   -6.6590   23.1000 N.3    36  ILE36      -0.1245
     85  CA         8.8450   -7.9340   23.7020 C.3    36  ILE36       0.1561
     86  C         10.1860   -8.4500   23.1630 C.2    36  ILE36       0.2260
     87  O         10.3880   -8.4420   21.9520 O.2    36  ILE36      -0.2867
     88  CB         7.7530   -8.9280   23.4270 C.3    36  ILE36       0.0252
     89  CG1        6.5140   -8.5380   24.2580 C.3    36  ILE36       0.0019
     90  CG2        8.2090  -10.3390   23.7090 C.3    36  ILE36       0.0019
     91  CD1        5.2650   -9.2850   23.8800 C.3    36  ILE36       0.0001
     92  N         -9.3590    2.1880   21.5320 N.3    66  HIS66      -0.1226
     93  CA        -8.2850    1.2660   21.8710 C.3    66  HIS66       0.1752
     94  C         -8.5370   -0.1280   21.3150 C.2    66  HIS66       0.2595
     95  O         -7.6210   -0.7750   20.8030 O.2    66  HIS66      -0.2718
     96  CB        -8.1150    1.1700   23.3830 C.3    66  HIS66       0.0759
     97  CG        -7.0130    0.2480   23.8020 C.ar   66  HIS66       0.0818
     98  ND1       -5.6810    0.5210   23.5670 N.ar   66  HIS66      -0.2268
     99  CD2       -7.0440   -0.9480   24.4330 C.ar   66  HIS66       0.1154
    100  CE1       -4.9420   -0.4670   24.0380 C.ar   66  HIS66       0.1986
    101  NE2       -5.7460   -1.3700   24.5700 N.ar   66  HIS66      -0.2212
    102  N         -9.7810   -0.5830   21.4290 N.am   67  GLU67      -0.1979
    103  CA       -10.1550   -1.9020   20.9460 C.3    67  GLU67       0.1602
    104  C        -10.0920   -1.9920   19.4250 C.2    67  GLU67       0.2287
    105  O         -9.7090   -3.0220   18.8730 O.2    67  GLU67      -0.2864
    106  CB       -11.5560   -2.2610   21.4310 C.3    67  GLU67       0.0415
    107  CG       -11.6710   -2.3120   22.9390 C.3    67  GLU67       0.1163
    108  CD       -12.4080   -3.5450   23.4180 C.2    67  GLU67       0.3649
    109  OE1      -12.6040   -3.6850   24.6430 O.co2  67  GLU67      -0.2457
    110  OE2      -12.7940   -4.3780   22.5720 O.co2  67  GLU67      -0.2457
    111  N         -6.6910   -2.5980   18.5710 N.3    70  VAL70      -0.1245
    112  CA        -6.3080   -3.9620   18.9010 C.3    70  VAL70       0.1561
    113  C         -6.7480   -4.8700   17.7640 C.2    70  VAL70       0.2260
    114  O         -5.9360   -5.5870   17.1850 O.2    70  VAL70      -0.2867
    115  CB        -6.9860   -4.4580   20.1920 C.3    70  VAL70       0.0252
    116  CG1       -6.5220   -5.8720   20.5020 C.3    70  VAL70       0.0019
    117  CG2       -6.6610   -3.5300   21.3470 C.3    70  VAL70       0.0019
    118  N         -4.9460   -4.7270   14.6700 N.3    73  LEU73      -0.1231
    119  CA        -3.6460   -5.3640   14.7530 C.3    73  LEU73       0.1693
    120  C         -3.7220   -6.8910   14.8920 C.2    73  LEU73       0.2591
    121  O         -2.7300   -7.5880   14.7100 O.2    73  LEU73      -0.2718
    122  CB        -2.8540   -4.7350   15.8990 C.3    73  LEU73       0.0284
    123  CG        -2.3030   -3.3330   15.5860 C.3    73  LEU73       0.0019
    124  CD1       -2.1410   -2.5250   16.8640 C.3    73  LEU73       0.0001
    125  CD2       -0.9670   -3.4590   14.8620 C.3    73  LEU73       0.0001
    126  N         -4.8970   -7.4170   15.1970 N.am   74  LYS74      -0.1980
    127  CA        -5.0410   -8.8590   15.3120 C.3    74  LYS74       0.1596
    128  C         -5.4320   -9.4280   13.9560 C.2    74  LYS74       0.2287
    129  O         -5.0040  -10.5120   13.5740 O.2    74  LYS74      -0.2864
    130  CB        -6.1300   -9.2170   16.3190 C.3    74  LYS74       0.0298
    131  CG        -5.7060   -9.1940   17.7800 C.3    74  LYS74       0.0038
    132  CD        -6.8420   -9.7460   18.6490 C.3    74  LYS74       0.0206
    133  CE        -6.5090   -9.7260   20.1390 C.3    74  LYS74       0.1093
    134  NZ        -7.7160   -9.9840   20.9910 N.3    74  LYS74      -0.1314
@<TRIPOS>BOND
     1    21    19    1
     2   129   128    2
     3   128   127    1
     4   118   119    1
     5   121   120    2
     6   119   120    1
     7   119   122    1
     8   125   123    1
     9   120   126   am
    10    19    20    1
    11    19    18    1
    12   126   127    1
    13   127   130    1
    14   123   122    1
    15   123   124    1
    16    18    15    1
    17    15    14    1
    18    15    16    1
    19   130   131    1
    20    13    12    2
    21    14    12   am
    22    17    16    2
    23    35    36   ar
    24    35    33   ar
    25    12    11    1
    26    16    22   am
    27    36    34   ar
    28   114   113    2
    29    11    10    2
    30    33    31   ar
    31   113   112    1
    32   131   132    1
    33    10     3    1
    34    22    23    1
    35    34    32   ar
    36   111   112    1
    37     1     2    1
    38   132   133    1
    39     3     4    2
    40     3     2    1
    41   105   104    2
    42   112   115    1
    43    31    32   ar
    44    31    30    1
    45     2     5    1
    46    23    24    1
    47   104   103    1
    48    30    27    1
    49    24    26   am
    50    24    25    2
    51   133   134    1
    52   115   116    1
    53   115   117    1
    54    26    27    1
    55    50    48    1
    56    49    47    1
    57     5     6    1
    58    95    94    2
    59   103   102    1
    60   103   106    1
    61    27    28    1
    62    29    28    2
    63    94   102   am
    64    94    93    1
    65   106   107    1
    66     6     7    1
    67    92    93    1
    68    47    48    1
    69    47    44    1
    70    28    37   am
    71    93    96    1
    72    87    86    2
    73     9     8    1
    74    37    38    1
    75   110   108   ar
    76    40    39    2
    77     8     7    1
    78    44    43    1
    79    44    45    1
    80   107   108    1
    81    78    77    2
    82    39    43   am
    83    39    38    1
    84    54    53    2
    85    84    85    1
    86    86    85    1
    87    38    41    1
    88    58    59    2
    89    58    57    1
    90    96    97    1
    91   108   109   ar
    92    88    85    1
    93    88    90    1
    94    88    89    1
    95    98    97   ar
    96    98   100   ar
    97    97    99   ar
    98    77    76    1
    99    68    69    1
   100    91    89    1
   101    57    56    1
   102    45    51   am
   103    45    46    2
   104    51    52    1
   105   100   101   ar
   106    53    56   am
   107    53    52    1
   108    99   101   ar
   109    41    42    1
   110    75    76    1
   111    75    70   am
   112    52    55    1
   113    76    79    1
   114    69    70    1
   115    69    72    1
   116    70    71    2
   117    73    72    1
   118    60    61    1
   119    63    62    2
   120    79    80    1
   121    74    72    1
   122    80    81    1
   123    62    61    1
   124    64    61    1
   125    64    65    1
   126    81    82    1
   127    82    83    1
   128    65    66    2
   129    65    67   am
