@<TRIPOS>MOLECULE
tmp/2i0sA00.pdb
 83 81 0 0 0
SMALL
GASTEIGER

@<TRIPOS>ATOM
      1  N          2.1300    8.6250    5.0480 N.3    26  ASP26      -0.1225
      2  CA         1.3920    8.4630    6.2930 C.3    26  ASP26       0.1805
      3  C          2.1920    7.4670    7.1230 C.2    26  ASP26       0.2598
      4  O          2.0660    6.2650    6.9340 O.2    26  ASP26      -0.2718
      5  CB         0.0020    7.9210    5.9990 C.3    26  ASP26       0.1424
      6  CG        -0.7850    7.5780    7.2460 C.2    26  ASP26       0.3668
      7  OD1       -0.4010    7.9930    8.3470 O.co2  26  ASP26      -0.2456
      8  OD2       -1.8140    6.8780    7.1430 O.co2  26  ASP26      -0.2456
      9  N          3.0770    7.9530    7.9790 N.am   27  GLY27      -0.1957
     10  CA         3.9000    7.0710    8.7940 C.3    27  GLY27       0.1869
     11  C          5.1870    7.7540    9.1790 C.2    27  GLY27       0.2309
     12  O          5.3660    8.9220    8.9220 O.2    27  GLY27      -0.2863
     13  N          7.2260    0.3840    2.6460 N.3    69  ASP69      -0.1239
     14  CA         7.4420    0.3640    4.0730 C.3    69  ASP69       0.1674
     15  C          8.6100   -0.5460    4.4190 C.2    69  ASP69       0.2266
     16  O          9.0710   -1.3630    3.6210 O.2    69  ASP69      -0.2867
     17  CB         6.2120   -0.1540    4.8250 C.3    69  ASP69       0.1410
     18  CG         5.0460    0.8040    4.8270 C.2    69  ASP69       0.3668
     19  OD1        5.2110    2.0160    4.6060 O.co2  69  ASP69      -0.2456
     20  OD2        3.9240    0.3200    5.1760 O.co2  69  ASP69      -0.2456
     21  N         -3.1380    5.6890    1.3740 N.3    97  ASN97      -0.1225
     22  CA        -2.1160    5.5780    2.4490 C.3    97  ASN97       0.1785
     23  C         -2.6610    5.4400    3.8650 C.2    97  ASN97       0.2597
     24  O         -1.9020    5.5890    4.8090 O.2    97  ASN97      -0.2718
     25  CB        -1.0580    6.6850    2.3590 C.3    97  ASN97       0.1169
     26  CG        -1.5450    8.0470    2.7820 C.2    97  ASN97       0.2627
     27  OD1       -2.6170    8.2050    3.3830 O.2    97  ASN97      -0.2716
     28  ND2       -0.6960    9.0730    2.5220 N.am   97  ASN97      -0.0877
     29  N         -3.9360    5.0890    4.0190 N.am   98  ASP98      -0.1960
     30  CA        -4.5230    4.7620    5.3240 C.3    98  ASP98       0.1840
     31  C         -4.5720    3.2500    5.5980 C.2    98  ASP98       0.2622
     32  O         -5.3010    2.7970    6.5000 O.2    98  ASP98      -0.2715
     33  CB        -5.9230    5.3300    5.5140 C.3    98  ASP98       0.1450
     34  CG        -5.9740    6.8260    5.3930 C.2    98  ASP98       0.3671
     35  OD1       -4.9460    7.5040    5.5740 O.co2  98  ASP98      -0.2456
     36  OD2       -7.0780    7.3210    5.0940 O.co2  98  ASP98      -0.2456
     37  N         -3.7980    2.5010    4.8340 N.am   99  VAL99      -0.1963
     38  CA        -3.6200    1.0660    5.0440 C.3    99  VAL99       0.1727
     39  C         -2.1580    0.7900    5.3350 C.2    99  VAL99       0.2616
     40  O         -1.2990    1.5610    4.9770 O.2    99  VAL99      -0.2715
     41  CB        -4.1440    0.2070    3.8640 C.3    99  VAL99       0.0290
     42  CG1       -5.6420    0.3060    3.8240 C.3    99  VAL99       0.0023
     43  CG2       -3.4870    0.5710    2.5080 C.3    99  VAL99       0.0023
     44  N         -1.8990   -0.3140    6.0220 N.am  100  ASN100     -0.1958
     45  CA        -0.5450   -0.7450    6.3310 C.3   100  ASN100      0.1819
     46  C          0.0650   -1.4330    5.1250 C.2   100  ASN100      0.2621
     47  O         -0.3230   -2.5600    4.8040 O.2   100  ASN100     -0.2715
     48  CB        -0.6290   -1.6900    7.4990 C.3   100  ASN100      0.1195
     49  CG         0.6930   -2.2530    7.8900 C.2   100  ASN100      0.2630
     50  OD1        1.7330   -1.6940    7.5850 O.2   100  ASN100     -0.2716
     51  ND2        0.6570   -3.4030    8.5530 N.am  100  ASN100     -0.0877
     52  N          0.9800   -0.7740    4.4260 N.am  101  TRP101     -0.1974
     53  CA         1.5700   -1.3910    3.2530 C.3   101  TRP101      0.1640
     54  C          2.5490   -2.5210    3.5900 C.2   101  TRP101      0.2290
     55  O          3.1060   -3.1350    2.6850 O.2   101  TRP101     -0.2864
     56  CB         2.0980   -0.3530    2.2410 C.3   101  TRP101      0.0576
     57  CG         0.9660    0.1900    1.4160 C.ar  101  TRP101      0.0006
     58  CD1        0.4070    1.4210    1.4690 C.ar  101  TRP101      0.0946
     59  CD2        0.2150   -0.5500    0.4640 C.ar  101  TRP101      0.0152
     60  NE1       -0.6490    1.4990    0.5910 N.ar  101  TRP101     -0.2442
     61  CE2       -0.7790    0.2950   -0.0420 C.ar  101  TRP101      0.0810
     62  CE3        0.3230   -1.8440   -0.0410 C.ar  101  TRP101      0.0012
     63  CZ2       -1.6840   -0.1250   -1.0030 C.ar  101  TRP101      0.0191
     64  CZ3       -0.5450   -2.2480   -0.9940 C.ar  101  TRP101      0.0001
     65  CH2       -1.5380   -1.3940   -1.4790 C.ar  101  TRP101      0.0015
     66  N          4.2700   -2.6880   11.3540 N.3   110  PHE110     -0.1241
     67  CA         4.7430   -1.5040   10.6430 C.3   110  PHE110      0.1605
     68  C          5.8430   -0.7840   11.4100 C.2   110  PHE110      0.2264
     69  O          5.6600   -0.3840   12.5620 O.2   110  PHE110     -0.2867
     70  CB         3.5910   -0.5290   10.3630 C.3   110  PHE110      0.0534
     71  CG         4.0520    0.7970    9.8330 C.ar  110  PHE110     -0.0203
     72  CD1        4.5860    0.9210    8.5760 C.ar  110  PHE110     -0.0042
     73  CD2        4.0470    1.9140   10.6380 C.ar  110  PHE110     -0.0042
     74  CE1        5.0200    2.1660    8.1110 C.ar  110  PHE110     -0.0003
     75  CE2        4.4940    3.1380   10.1820 C.ar  110  PHE110     -0.0003
     76  CZ         4.9930    3.2540    8.9230 C.ar  110  PHE110     -0.0000
     77  N          8.1290    4.2120    6.9420 N.3   113  THR113     -0.1218
     78  CA         7.8610    4.3590    5.5080 C.3   113  THR113      0.1862
     79  C          9.0220    5.0600    4.8240 C.2   113  THR113      0.2287
     80  O          9.5510    6.0200    5.3870 O.2   113  THR113     -0.2866
     81  CB         6.6610    5.2410    5.2910 C.3   113  THR113      0.1770
     82  OG1        5.5410    4.7080    5.9740 O.3   113  THR113     -0.2211
     83  CG2        6.2860    5.3200    3.8110 C.3   113  THR113      0.0375
@<TRIPOS>BOND
     1    65    63   ar
     2    65    64   ar
     3    63    61   ar
     4    64    62   ar
     5    61    59   ar
     6    61    60   ar
     7    62    59   ar
     8    59    57   ar
     9    60    58   ar
    10    21    22    1
    11    57    58   ar
    12    57    56    1
    13    56    53    1
    14    25    22    1
    15    25    26    1
    16    22    23    1
    17    43    41    1
    18    28    26   am
    19    13    14    1
    20    55    54    2
    21    26    27    2
    22    53    54    1
    23    53    52    1
    24    16    15    2
    25    83    81    1
    26    42    41    1
    27    41    38    1
    28    23    29   am
    29    23    24    2
    30    29    30    1
    31    14    15    1
    32    14    17    1
    33    52    46   am
    34    19    18   ar
    35    47    46    2
    36    79    80    2
    37    79    78    1
    38    17    18    1
    39    18    20   ar
    40    37    38    1
    41    37    31   am
    42    40    39    2
    43    38    39    1
    44     1     2    1
    45    36    34   ar
    46    46    45    1
    47    81    78    1
    48    81    82    1
    49    30    33    1
    50    30    31    1
    51    39    44   am
    52    34    33    1
    53    34    35   ar
    54    78    77    1
    55    31    32    2
    56     5     2    1
    57     5     6    1
    58    44    45    1
    59     2     3    1
    60    45    48    1
    61     4     3    2
    62     3     9   am
    63     8     6   ar
    64     6     7   ar
    65    48    49    1
    66    50    49    2
    67    49    51   am
    68     9    10    1
    69    74    72   ar
    70    74    76   ar
    71    72    71   ar
    72    10    11    1
    73    12    11    2
    74    76    75   ar
    75    71    70    1
    76    71    73   ar
    77    75    73   ar
    78    70    67    1
    79    67    66    1
    80    67    68    1
    81    68    69    2
