@<TRIPOS>MOLECULE
tmp/2i0uA00.pdb
 168 169 0 0 0
SMALL
GASTEIGER

@<TRIPOS>ATOM
      1  N         32.9390    5.9880   34.9840 N.3     2  LEU2       -0.1231
      2  CA        32.0560    7.1490   34.9510 C.3     2  LEU2        0.1693
      3  C         31.1710    7.2570   33.7060 C.2     2  LEU2        0.2592
      4  O         30.0560    7.7700   33.7800 O.2     2  LEU2       -0.2718
      5  CB        32.8640    8.4390   35.1310 C.3     2  LEU2        0.0284
      6  CG        33.4790    8.6720   36.5200 C.3     2  LEU2        0.0019
      7  CD1       34.1300   10.0510   36.5720 C.3     2  LEU2        0.0001
      8  CD2       32.3990    8.5700   37.5940 C.3     2  LEU2        0.0001
      9  N         31.6580    6.7750   32.5660 N.am    3  PHE3       -0.1976
     10  CA        30.8720    6.8350   31.3410 C.3     3  PHE3        0.1639
     11  C         29.6440    5.9390   31.4930 C.2     3  PHE3        0.2290
     12  O         28.5430    6.2950   31.0580 O.2     3  PHE3       -0.2864
     13  CB        31.7170    6.3870   30.1420 C.3     3  PHE3        0.0560
     14  CG        31.0200    6.5300   28.8180 C.ar    3  PHE3       -0.0200
     15  CD1       30.5150    7.7630   28.4110 C.ar    3  PHE3       -0.0042
     16  CD2       30.8770    5.4360   27.9700 C.ar    3  PHE3       -0.0042
     17  CE1       29.8740    7.9040   27.1750 C.ar    3  PHE3       -0.0003
     18  CE2       30.2380    5.5640   26.7310 C.ar    3  PHE3       -0.0003
     19  CZ        29.7380    6.7990   26.3340 C.ar    3  PHE3       -0.0000
     20  N         28.2710    5.1760   34.3120 N.3     5  PHE5       -0.1227
     21  CA        27.4400    5.8370   35.3170 C.3     5  PHE5        0.1736
     22  C         26.5690    6.8620   34.5910 C.2     5  PHE5        0.2595
     23  O         25.3660    6.9620   34.8420 O.2     5  PHE5       -0.2718
     24  CB        28.3430    6.5100   36.3740 C.3     5  PHE5        0.0547
     25  CG        27.5930    7.2120   37.4950 C.ar    5  PHE5       -0.0202
     26  CD1       26.3800    6.7220   37.9700 C.ar    5  PHE5       -0.0042
     27  CD2       28.1280    8.3530   38.0920 C.ar    5  PHE5       -0.0042
     28  CE1       25.7100    7.3520   39.0180 C.ar    5  PHE5       -0.0003
     29  CE2       27.4670    8.9940   39.1420 C.ar    5  PHE5       -0.0003
     30  CZ        26.2550    8.4940   39.6060 C.ar    5  PHE5       -0.0000
     31  N         27.1770    7.6030   33.6670 N.am    6  ALA6       -0.1980
     32  CA        26.4430    8.6040   32.9000 C.3     6  ALA6        0.1597
     33  C         25.3440    7.9530   32.0540 C.2     6  ALA6        0.2287
     34  O         24.2380    8.4830   31.9590 O.2     6  ALA6       -0.2864
     35  CB        27.3990    9.3950   32.0100 C.3     6  ALA6        0.0319
     36  N         22.3690    7.1020   34.2430 N.3     9  ILE9       -0.1245
     37  CA        21.6110    8.3100   34.5490 C.3     9  ILE9        0.1561
     38  C         20.7720    8.7360   33.3530 C.2     9  ILE9        0.2260
     39  O         19.5740    8.9630   33.4820 O.2     9  ILE9       -0.2867
     40  CB        22.5490    9.4830   34.9320 C.3     9  ILE9        0.0252
     41  CG1       23.3330    9.1380   36.1980 C.3     9  ILE9        0.0019
     42  CG2       21.7370   10.7650   35.1410 C.3     9  ILE9        0.0019
     43  CD1       24.3890   10.1770   36.5600 C.3     9  ILE9        0.0001
     44  N         22.8060   13.5640   32.9020 N.3    18  VAL18      -0.1231
     45  CA        23.9890   13.5110   33.7550 C.3    18  VAL18       0.1692
     46  C         24.4910   14.9220   34.0680 C.2    18  VAL18       0.2592
     47  O         24.9650   15.1910   35.1700 O.2    18  VAL18      -0.2718
     48  CB        25.1270   12.6790   33.1000 C.3    18  VAL18       0.0266
     49  CG1       25.6270   13.3580   31.8300 C.3    18  VAL18       0.0020
     50  CG2       26.2650   12.4910   34.0970 C.3    18  VAL18       0.0020
     51  N         24.3620   15.8310   33.1070 N.am   19  TRP19      -0.1976
     52  CA        24.8100   17.2030   33.3150 C.3    19  TRP19       0.1640
     53  C         24.0810   17.9200   34.4510 C.2    19  TRP19       0.2290
     54  O         24.5980   18.8890   35.0020 O.2    19  TRP19      -0.2864
     55  CB        24.6880   18.0020   32.0170 C.3    19  TRP19       0.0576
     56  CG        25.7420   17.6210   31.0430 C.ar   19  TRP19       0.0006
     57  CD1       25.6050   16.8160   29.9530 C.ar   19  TRP19       0.0946
     58  CD2       27.1280   17.9720   31.1140 C.ar   19  TRP19       0.0152
     59  NE1       26.8220   16.6390   29.3390 N.ar   19  TRP19      -0.2442
     60  CE2       27.7740   17.3390   30.0330 C.ar   19  TRP19       0.0810
     61  CE3       27.8850   18.7610   31.9890 C.ar   19  TRP19       0.0012
     62  CZ2       29.1480   17.4700   29.8020 C.ar   19  TRP19       0.0191
     63  CZ3       29.2520   18.8920   31.7590 C.ar   19  TRP19       0.0001
     64  CH2       29.8680   18.2480   30.6720 C.ar   19  TRP19       0.0015
     65  N         23.6850   16.7230   37.1870 N.3    21  TYR21      -0.1227
     66  CA        24.3700   16.2770   38.3910 C.3    21  TYR21       0.1736
     67  C         25.8650   16.5780   38.4240 C.2    21  TYR21       0.2595
     68  O         26.5870   16.1420   39.3260 O.2    21  TYR21      -0.2718
     69  CB        24.0890   14.7810   38.5940 C.3    21  TYR21       0.0548
     70  CG        22.5930   14.5120   38.5910 C.ar   21  TYR21      -0.0200
     71  CD1       21.9160   14.1970   37.4110 C.ar   21  TYR21      -0.0009
     72  CD2       21.8390   14.6830   39.7530 C.ar   21  TYR21      -0.0009
     73  CE1       20.5230   14.0680   37.3910 C.ar   21  TYR21       0.0417
     74  CE2       20.4580   14.5610   39.7460 C.ar   21  TYR21       0.0417
     75  CZ        19.8030   14.2570   38.5650 C.ar   21  TYR21       0.1957
     76  OH        18.4340   14.1730   38.5690 O.3    21  TYR21      -0.2866
     77  N         26.3350   17.3180   37.4300 N.am   22  ILE22      -0.1980
     78  CA        27.7350   17.7100   37.4110 C.3    22  ILE22       0.1595
     79  C         27.7070   19.0970   38.0350 C.2    22  ILE22       0.2287
     80  O         27.4070   20.0860   37.3730 O.2    22  ILE22      -0.2864
     81  CB        28.2840   17.7550   35.9770 C.3    22  ILE22       0.0276
     82  CG1       28.4470   16.3240   35.4610 C.3    22  ILE22       0.0022
     83  CG2       29.6170   18.4800   35.9420 C.3    22  ILE22       0.0022
     84  CD1       28.8410   16.2330   34.0050 C.3    22  ILE22       0.0001
     85  N         27.4910   18.0720   47.1770 N.3    27  TYR27      -0.1227
     86  CA        28.2260   16.8430   46.8660 C.3    27  TYR27       0.1736
     87  C         28.2030   16.2910   45.4450 C.2    27  TYR27       0.2596
     88  O         29.0760   15.5100   45.0860 O.2    27  TYR27      -0.2718
     89  CB        27.7890   15.7280   47.8190 C.3    27  TYR27       0.0548
     90  CG        28.1490   15.9940   49.2550 C.ar   27  TYR27      -0.0200
     91  CD1       27.2850   16.7010   50.0970 C.ar   27  TYR27      -0.0009
     92  CD2       29.3750   15.5800   49.7670 C.ar   27  TYR27      -0.0009
     93  CE1       27.6410   16.9870   51.4200 C.ar   27  TYR27       0.0417
     94  CE2       29.7410   15.8590   51.0780 C.ar   27  TYR27       0.0417
     95  CZ        28.8720   16.5590   51.8990 C.ar   27  TYR27       0.1957
     96  OH        29.2350   16.8110   53.2010 O.3    27  TYR27      -0.2866
     97  N         27.2240   16.6700   44.6350 N.am   28  CYS28      -0.1956
     98  CA        27.1730   16.1400   43.2780 C.3    28  CYS28       0.1843
     99  C         28.2790   16.7370   42.4140 C.2    28  CYS28       0.2626
    100  O         28.1110   17.7750   41.7760 O.2    28  CYS28      -0.2714
    101  CB        25.7970   16.3950   42.6580 C.3    28  CYS28       0.0997
    102  SG        24.4500   15.5860   43.5830 S.3    28  CYS28      -0.0797
    103  N         29.4230   16.0610   42.4160 N.am   29  GLY29      -0.1940
    104  CA        30.5660   16.5210   41.6520 C.3    29  GLY29       0.2014
    105  C         31.7790   16.7050   42.5360 C.2    29  GLY29       0.2639
    106  O         31.6770   16.6820   43.7620 O.2    29  GLY29      -0.2714
    107  N         32.9290   16.8760   41.8960 N.am   30  TRP30      -0.1959
    108  CA        34.2080   17.0830   42.5670 C.3    30  TRP30       0.1771
    109  C         34.0720   17.6470   43.9770 C.2    30  TRP30       0.2620
    110  O         33.2710   18.5510   44.2210 O.2    30  TRP30      -0.2715
    111  CB        35.0560   18.0270   41.7170 C.3    30  TRP30       0.0590
    112  CG        34.2790   19.2300   41.2930 C.ar   30  TRP30       0.0006
    113  CD1       34.2000   20.4320   41.9410 C.ar   30  TRP30       0.0946
    114  CD2       33.3970   19.3220   40.1680 C.ar   30  TRP30       0.0152
    115  NE1       33.3210   21.2650   41.2890 N.ar   30  TRP30      -0.2442
    116  CE2       32.8140   20.6090   40.1980 C.ar   30  TRP30       0.0810
    117  CE3       33.0410   18.4400   39.1380 C.ar   30  TRP30       0.0012
    118  CZ2       31.8930   21.0350   39.2350 C.ar   30  TRP30       0.0191
    119  CZ3       32.1250   18.8640   38.1820 C.ar   30  TRP30       0.0001
    120  CH2       31.5620   20.1510   38.2380 C.ar   30  TRP30       0.0015
    121  N         34.8650   17.1060   44.8980 N.am   31  GLY31      -0.1954
    122  CA        34.8330   17.5640   46.2750 C.3    31  GLY31       0.1869
    123  C         33.4760   17.3930   46.9280 C.2    31  GLY31       0.2309
    124  O         32.5340   16.8880   46.3170 O.2    31  GLY31      -0.2863
    125  N         24.5430   11.8500   46.4270 N.3    44  CYS44      -0.1235
    126  CA        25.8620   12.1250   45.8650 C.3    44  CYS44       0.1677
    127  C         26.8950   11.9290   46.9710 C.2    44  CYS44       0.2270
    128  O         27.9680   11.3770   46.7400 O.2    44  CYS44      -0.2867
    129  CB        25.9270   13.5450   45.2960 C.3    44  CYS44       0.0956
    130  SG        25.0370   13.6530   43.7180 S.3    44  CYS44      -0.0801
    131  N         27.2830    8.2780   47.1550 N.3    47  HIS47      -0.1226
    132  CA        27.9920    7.7500   45.9950 C.3    47  HIS47       0.1752
    133  C         29.5100    7.8940   46.1770 C.2    47  HIS47       0.2596
    134  O         30.2710    6.9580   45.9120 O.2    47  HIS47      -0.2718
    135  CB        27.5410    8.4650   44.7190 C.3    47  HIS47       0.0759
    136  CG        28.1330    7.8930   43.4690 C.ar   47  HIS47       0.0818
    137  ND1       29.2080    8.4650   42.8210 N.ar   47  HIS47      -0.2268
    138  CD2       27.8160    6.7830   42.7600 C.ar   47  HIS47       0.1154
    139  CE1       29.5250    7.7330   41.7690 C.ar   47  HIS47       0.1986
    140  NE2       28.6970    6.7060   41.7090 N.ar   47  HIS47      -0.2212
    141  N         29.9460    9.0620   46.6360 N.am   48  ASP48      -0.1974
    142  CA        31.3670    9.2840   46.8570 C.3    48  ASP48       0.1709
    143  C         31.8670    8.3690   47.9710 C.2    48  ASP48       0.2293
    144  O         32.9640    7.8150   47.8900 O.2    48  ASP48      -0.2864
    145  CB        31.6360   10.7470   47.2090 C.3    48  ASP48       0.1436
    146  CG        33.1000   11.0020   47.5380 C.2    48  ASP48       0.3671
    147  OD1       33.4630   10.9560   48.7280 O.co2  48  ASP48      -0.2456
    148  OD2       33.8900   11.2270   46.6030 O.co2  48  ASP48      -0.2456
    149  N         36.2570    4.9500   39.2750 N.3    60  LYS60      -0.1245
    150  CA        35.9410    5.8350   38.1580 C.3    60  LYS60       0.1561
    151  C         36.4380    5.3210   36.8070 C.2    60  LYS60       0.2260
    152  O         35.9490    5.7490   35.7540 O.2    60  LYS60      -0.2867
    153  CB        36.5030    7.2360   38.4190 C.3    60  LYS60       0.0271
    154  CG        35.8330    7.9580   39.5890 C.3    60  LYS60       0.0035
    155  CD        36.4090    9.3500   39.7890 C.3    60  LYS60       0.0206
    156  CE        35.8650   10.0010   41.0530 C.3    60  LYS60       0.1093
    157  NZ        36.5710   11.2780   41.3610 N.3    60  LYS60      -0.1314
    158  N         18.5450    9.4350   41.7580 N.3    96  PHE96      -0.1241
    159  CA        18.3100   10.6720   41.0160 C.3    96  PHE96       0.1605
    160  C         16.9350   10.6000   40.3490 C.2    96  PHE96       0.2264
    161  O         16.1930   11.5800   40.3160 O.2    96  PHE96      -0.2867
    162  CB        19.3860   10.8950   39.9380 C.3    96  PHE96       0.0534
    163  CG        20.7860   11.0750   40.4820 C.ar   96  PHE96      -0.0203
    164  CD1       21.0050   11.3860   41.8220 C.ar   96  PHE96      -0.0042
    165  CD2       21.8890   10.9540   39.6370 C.ar   96  PHE96      -0.0042
    166  CE1       22.3020   11.5730   42.3170 C.ar   96  PHE96      -0.0003
    167  CE2       23.1940   11.1400   40.1200 C.ar   96  PHE96      -0.0003
    168  CZ        23.3980   11.4500   41.4650 C.ar   96  PHE96      -0.0000
@<TRIPOS>BOND
     1    19    18   ar
     2    19    17   ar
     3    18    16   ar
     4    17    15   ar
     5    16    14   ar
     6    15    14   ar
     7    14    13    1
     8    59    57   ar
     9    59    60   ar
    10    62    60   ar
    11    62    64   ar
    12    57    56   ar
    13    60    58   ar
    14    13    10    1
    15    64    63   ar
    16    56    58   ar
    17    56    55    1
    18    12    11    2
    19    58    61   ar
    20    10    11    1
    21    10     9    1
    22    63    61   ar
    23    49    48    1
    24    34    33    2
    25    35    32    1
    26    55    52    1
    27    33    32    1
    28     9     3   am
    29    32    31    1
    30    44    45    1
    31    48    45    1
    32    48    50    1
    33    51    52    1
    34    51    46   am
    35    52    53    1
    36    38    39    2
    37    38    37    1
    38    31    22   am
    39     3     4    2
    40     3     2    1
    41    45    46    1
    42    84    82    1
    43    46    47    2
    44    36    37    1
    45    20    21    1
    46    53    54    2
    47    37    40    1
    48    22    23    2
    49    22    21    1
    50    40    42    1
    51    40    41    1
    52     2     1    1
    53     2     5    1
    54     5     6    1
    55    21    24    1
    56    82    81    1
    57   152   151    2
    58    83    81    1
    59    81    78    1
    60    41    43    1
    61    24    25    1
    62     6     7    1
    63     6     8    1
    64   151   150    1
    65    65    66    1
    66    80    79    2
    67    73    71   ar
    68    73    75   ar
    69    78    77    1
    70    78    79    1
    71    71    70   ar
    72    77    67   am
    73    25    26   ar
    74    25    27   ar
    75    26    28   ar
    76    27    29   ar
    77   150   153    1
    78   150   149    1
    79   119   120   ar
    80   119   117   ar
    81   120   118   ar
    82    66    67    1
    83    66    69    1
    84   153   154    1
    85    67    68    2
    86    75    76    1
    87    75    74   ar
    88    70    69    1
    89    70    72   ar
    90    28    30   ar
    91   117   114   ar
    92    29    30   ar
    93   118   116   ar
    94   154   155    1
    95   165   167   ar
    96   165   163   ar
    97    74    72   ar
    98   155   156    1
    99   162   163    1
   100   162   159    1
   101   167   168   ar
   102   114   116   ar
   103   114   112   ar
   104   116   115   ar
   105   161   160    2
   106   160   159    1
   107   163   164   ar
   108   159   158    1
   109   156   157    1
   110   115   113   ar
   111   112   111    1
   112   112   113   ar
   113   168   166   ar
   114   104   103    1
   115   104   105    1
   116   140   139   ar
   117   140   138   ar
   118   111   108    1
   119   139   137   ar
   120   100    99    2
   121   164   166   ar
   122   107   105   am
   123   107   108    1
   124    99   103   am
   125    99    98    1
   126   105   106    2
   127   108   109    1
   128   101    98    1
   129   101   102    1
   130   138   136   ar
   131   137   136   ar
   132    98    97    1
   133   136   135    1
   134   102   130    1
   135   130   129    1
   136   109   110    2
   137   109   121   am
   138    97    87   am
   139   135   132    1
   140   121   122    1
   141    88    87    2
   142   129   126    1
   143    87    86    1
   144   126   125    1
   145   126   127    1
   146   134   133    2
   147   132   133    1
   148   132   131    1
   149   133   141   am
   150   122   123    1
   151   124   123    2
   152   148   146   ar
   153   141   142    1
   154   128   127    2
   155   142   145    1
   156   142   143    1
   157    86    85    1
   158    86    89    1
   159   145   146    1
   160   146   147   ar
   161    89    90    1
   162   144   143    2
   163    90    92   ar
   164    90    91   ar
   165    92    94   ar
   166    91    93   ar
   167    94    95   ar
   168    93    95   ar
   169    95    96    1
