@<TRIPOS>MOLECULE
tmp/2i0vA00.pdb
 143 135 0 0 0
SMALL
GASTEIGER

@<TRIPOS>ATOM
      1  N          0.5170   27.0430    9.1800 N.3    45  LEU45      -0.1231
      2  CA         1.4900   28.0970    8.8890 C.3    45  LEU45       0.1693
      3  C          1.2810   28.6370    7.4840 C.2    45  LEU45       0.2592
      4  O          1.5070   29.8090    7.2230 O.2    45  LEU45      -0.2718
      5  CB         2.9070   27.5490    8.9950 C.3    45  LEU45       0.0284
      6  CG         3.3500   26.9950   10.3400 C.3    45  LEU45       0.0019
      7  CD1        4.7860   26.4730   10.2490 C.3    45  LEU45       0.0001
      8  CD2        3.2470   28.1030   11.3670 C.3    45  LEU45       0.0001
      9  N          0.8570   27.7690    6.5800 N.am   46  GLY46      -0.1957
     10  CA         0.6390   28.1920    5.2170 C.3    46  GLY46       0.1869
     11  C          0.1850   27.0060    4.4020 C.2    46  GLY46       0.2309
     12  O          0.1920   25.8710    4.8970 O.2    46  GLY46      -0.2863
     13  N          1.4960   23.1380    5.3830 N.3    53  VAL53      -0.1245
     14  CA         2.5090   22.8670    6.3760 C.3    53  VAL53       0.1561
     15  C          1.9370   23.5440    7.6060 C.2    53  VAL53       0.2260
     16  O          1.5670   24.7290    7.5710 O.2    53  VAL53      -0.2867
     17  CB         3.8990   23.4360    5.9470 C.3    53  VAL53       0.0252
     18  CG1        3.7150   24.5370    4.9470 C.3    53  VAL53       0.0019
     19  CG2        4.6880   23.9160    7.1620 C.3    53  VAL53       0.0019
     20  N          7.4300   22.1240   12.1630 N.3    71  ALA71      -0.1245
     21  CA         6.5890   22.4370   11.0200 C.3    71  ALA71       0.1562
     22  C          6.4540   21.1700   10.2110 C.2    71  ALA71       0.2260
     23  O          7.4300   20.6300    9.7040 O.2    71  ALA71      -0.2867
     24  CB         7.2030   23.5400   10.1850 C.3    71  ALA71       0.0290
     25  N          5.3680   19.3730    6.9840 N.3    73  LYS73      -0.1245
     26  CA         5.0000   19.4980    5.5890 C.3    73  LYS73       0.1561
     27  C          4.0510   18.3200    5.3780 C.2    73  LYS73       0.2260
     28  O          4.2190   17.2710    6.0070 O.2    73  LYS73      -0.2867
     29  CB         6.2160   19.3210    4.6800 C.3    73  LYS73       0.0271
     30  CG         7.0520   20.5500    4.4290 C.3    73  LYS73       0.0035
     31  CD         8.2600   20.1580    3.5950 C.3    73  LYS73       0.0206
     32  CE         8.9390   21.3530    2.9380 C.3    73  LYS73       0.1093
     33  NZ        10.2720   21.0500    2.2980 N.3    73  LYS73      -0.1314
     34  N         16.7870   25.0460    6.5170 N.3   104  VAL104     -0.1245
     35  CA        15.6740   24.5490    7.3070 C.3   104  VAL104      0.1561
     36  C         15.9150   23.0440    7.2200 C.2   104  VAL104      0.2260
     37  O         15.7070   22.4340    6.1750 O.2   104  VAL104     -0.2867
     38  CB        14.3030   24.8980    6.6900 C.3   104  VAL104      0.0252
     39  CG1       13.1980   24.1620    7.4360 C.3   104  VAL104      0.0019
     40  CG2       14.0490   26.3970    6.7710 C.3   104  VAL104      0.0019
     41  N          9.8780   19.2090    9.5420 N.3   120  THR120     -0.1203
     42  CA        11.0480   20.0840    9.4420 C.3   120  THR120      0.1994
     43  C         11.1980   21.0190   10.6300 C.2   120  THR120      0.2618
     44  O         10.3900   21.0160   11.5580 O.2   120  THR120     -0.2717
     45  CB        11.0420   20.9650    8.1440 C.3   120  THR120      0.1784
     46  OG1        9.7500   21.5570    7.9510 O.3   120  THR120     -0.2211
     47  CG2       11.4270   20.1400    6.9330 C.3   120  THR120      0.0376
     48  N         12.2450   21.8240   10.5960 N.am  121  GLU121     -0.1965
     49  CA        12.4890   22.7600   11.6760 C.3   121  GLU121      0.1733
     50  C         11.4090   23.8120   11.6950 C.2   121  GLU121      0.2616
     51  O         10.7180   24.0420   10.7010 O.2   121  GLU121     -0.2715
     52  CB        13.8210   23.4870   11.4910 C.3   121  GLU121      0.0429
     53  CG        15.0440   22.6130   11.3960 C.3   121  GLU121      0.1163
     54  CD        16.3130   23.4350   11.3670 C.2   121  GLU121      0.3649
     55  OE1       16.5260   24.1980   10.3940 O.co2 121  GLU121     -0.2457
     56  OE2       17.0920   23.3270   12.3370 O.co2 121  GLU121     -0.2457
     57  N         11.2790   24.4610   12.8380 N.am  122  TYR122     -0.1960
     58  CA        10.2960   25.5040   12.9790 C.3   122  TYR122      0.1771
     59  C         11.0400   26.7970   13.3330 C.2   122  TYR122      0.2620
     60  O         11.7330   26.8710   14.3430 O.2   122  TYR122     -0.2715
     61  CB         9.2710   25.1540   14.0640 C.3   122  TYR122      0.0574
     62  CG         8.3240   26.2910   14.3280 C.ar  122  TYR122     -0.0198
     63  CD1        7.3060   26.6090   13.4210 C.ar  122  TYR122     -0.0009
     64  CD2        8.5120   27.1190   15.4310 C.ar  122  TYR122     -0.0009
     65  CE1        6.5070   27.7300   13.6070 C.ar  122  TYR122      0.0417
     66  CE2        7.7260   28.2380   15.6250 C.ar  122  TYR122      0.0417
     67  CZ         6.7280   28.5450   14.7140 C.ar  122  TYR122      0.1957
     68  OH         5.9740   29.6820   14.9180 O.3   122  TYR122     -0.2866
     69  N         10.9030   27.8070   12.4770 N.am  123  CYS123     -0.1954
     70  CA        11.5530   29.0980   12.6880 C.3   123  CYS123      0.1843
     71  C         10.4870   30.1090   13.1350 C.2   123  CYS123      0.2625
     72  O          9.5550   30.4050   12.3890 O.2   123  CYS123     -0.2714
     73  CB        12.2440   29.5300   11.3890 C.3   123  CYS123      0.0997
     74  SG        13.3410   28.2290   10.7160 S.3   123  CYS123     -0.0797
     75  N         10.6520   30.6420   14.3480 N.am  124  CYS124     -0.1968
     76  CA         9.7180   31.6110   14.9420 C.3   124  CYS124      0.1712
     77  C          9.5330   33.0690   14.4580 C.2   124  CYS124      0.2296
     78  O          8.5060   33.6810   14.7650 O.2   124  CYS124     -0.2864
     79  CB         9.9560   31.6650   16.4490 C.3   124  CYS124      0.0983
     80  SG        11.4510   32.5290   16.8860 S.3   124  CYS124     -0.0798
     81  N          9.3820   34.0220   11.2710 N.3   126  GLY126     -0.1210
     82  CA         8.8600   34.0130    9.9060 C.3   126  GLY126      0.1956
     83  C          9.8410   34.3000    8.7790 C.2   126  GLY126      0.2611
     84  O         11.0510   34.3820    9.0110 O.2   126  GLY126     -0.2717
     85  N          9.3390   34.4730    7.5570 N.am  127  ASP127     -0.1973
     86  CA        10.2410   34.7460    6.4430 C.3   127  ASP127      0.1709
     87  C         10.8710   36.1420    6.4290 C.2   127  ASP127      0.2293
     88  O         10.3000   37.1240    6.9430 O.2   127  ASP127     -0.2864
     89  CB         9.5560   34.4910    5.1160 C.3   127  ASP127      0.1436
     90  CG         8.3640   35.3590    4.9170 C.2   127  ASP127      0.3671
     91  OD1        7.3240   35.0890    5.5470 O.co2 127  ASP127     -0.2456
     92  OD2        8.4680   36.3160    4.1320 O.co2 127  ASP127     -0.2456
     93  N         13.7040   31.8900    6.1040 N.3   173  LEU173     -0.1245
     94  CA        12.9860   32.0050    7.3610 C.3   173  LEU173      0.1561
     95  C         13.9430   32.6540    8.3180 C.2   173  LEU173      0.2260
     96  O         15.1040   32.8700    8.0000 O.2   173  LEU173     -0.2867
     97  CB        12.6710   30.6240    7.9180 C.3   173  LEU173      0.0270
     98  CG        11.2630   30.0750    7.9700 C.3   173  LEU173      0.0019
     99  CD1       10.5220   30.4370    6.7140 C.3   173  LEU173      0.0001
    100  CD2       11.3550   28.5740    8.1420 C.3   173  LEU173      0.0001
    101  N         12.8890   25.7190    0.8900 N.3   184  ASP184     -0.1225
    102  CA        11.9520   25.8410   -0.2090 C.3   184  ASP184      0.1805
    103  C         10.5850   25.7470    0.4690 C.2   184  ASP184      0.2597
    104  O         10.2340   24.7560    1.1170 O.2   184  ASP184     -0.2718
    105  CB        12.1560   24.7470   -1.2500 C.3   184  ASP184      0.1424
    106  CG        11.1740   24.8640   -2.4010 C.2   184  ASP184      0.3668
    107  OD1       10.5830   25.9550   -2.5760 O.co2 184  ASP184     -0.2456
    108  OD2       10.9970   23.8770   -3.1360 O.co2 184  ASP184     -0.2456
    109  N          9.8170   26.8090    0.3230 N.am  185  PHE185     -0.1976
    110  CA         8.5060   26.8730    0.9260 C.3   185  PHE185      0.1639
    111  C          7.3610   26.7520   -0.0670 C.2   185  PHE185      0.2290
    112  O          6.2770   27.3020    0.1260 O.2   185  PHE185     -0.2864
    113  CB         8.4640   28.1750    1.7140 C.3   185  PHE185      0.0560
    114  CG         9.6480   28.3420    2.6370 C.ar  185  PHE185     -0.0200
    115  CD1       10.1580   29.6010    2.9270 C.ar  185  PHE185     -0.0042
    116  CD2       10.2540   27.2270    3.2070 C.ar  185  PHE185     -0.0042
    117  CE1       11.2540   29.7480    3.7710 C.ar  185  PHE185     -0.0003
    118  CE2       11.3480   27.3610    4.0520 C.ar  185  PHE185     -0.0003
    119  CZ        11.8520   28.6240    4.3370 C.ar  185  PHE185     -0.0000
    120  N          5.2570   24.3150   -0.7910 N.3   187  LEU187     -0.1231
    121  CA         3.9590   23.8920   -0.2490 C.3   187  LEU187      0.1693
    122  C          3.2120   25.0470    0.3840 C.2   187  LEU187      0.2592
    123  O          2.1270   25.3960   -0.0600 O.2   187  LEU187     -0.2718
    124  CB         4.1010   22.7990    0.8070 C.3   187  LEU187      0.0284
    125  CG         4.4510   21.3800    0.3880 C.3   187  LEU187      0.0019
    126  CD1        4.3110   20.4880    1.6130 C.3   187  LEU187      0.0001
    127  CD2        3.5540   20.9050   -0.7380 C.3   187  LEU187      0.0001
    128  N          3.8190   25.6460    1.4020 N.am  188  ALA188     -0.1966
    129  CA         3.2420   26.7650    2.1320 C.3   188  ALA188      0.1728
    130  C          2.8310   28.0260    1.3690 C.2   188  ALA188      0.2616
    131  O          2.1300   28.8680    1.9240 O.2   188  ALA188     -0.2715
    132  CB         4.1600   27.1390    3.2460 C.3   188  ALA188      0.0334
    133  N          3.2580   28.1840    0.1210 N.am  189  ARG189     -0.1977
    134  CA         2.8840   29.3780   -0.6410 C.3   189  ARG189      0.1597
    135  C          1.9190   28.9320   -1.7080 C.2   189  ARG189      0.2287
    136  O          1.9150   27.7650   -2.0830 O.2   189  ARG189     -0.2864
    137  CB         4.1010   30.0060   -1.3310 C.3   189  ARG189      0.0334
    138  CG         5.2440   30.4070   -0.4130 C.3   189  ARG189      0.0492
    139  CD         5.0330   31.7690    0.2120 C.3   189  ARG189      0.2205
    140  NE         6.1850   32.1650    1.0170 N.pl3 189  ARG189     -0.0865
    141  CZ         6.3730   33.3840    1.5190 C.cat 189  ARG189      0.5346
    142  NH1        5.4810   34.3520    1.3030 N.pl3 189  ARG189      0.1354
    143  NH2        7.4580   33.6330    2.2460 N.pl3 189  ARG189      0.1354
@<TRIPOS>BOND
     1   108   106   ar
     2   107   106   ar
     3   106   105    1
     4   136   135    2
     5   135   134    1
     6   137   134    1
     7   137   138    1
     8   105   102    1
     9   120   121    1
    10   127   125    1
    11   134   133    1
    12   138   139    1
    13   121   122    1
    14   121   124    1
    15   102   103    1
    16   102   101    1
    17   111   112    2
    18   111   110    1
    19   123   122    2
    20   133   130   am
    21   139   140    1
    22   109   103   am
    23   109   110    1
    24   122   128   am
    25   125   124    1
    26   125   126    1
    27   103   104    2
    28   110   113    1
    29   140   141    2
    30   142   141    1
    31   130   131    2
    32   130   129    1
    33   128   129    1
    34   141   143    1
    35   113   114    1
    36   129   132    1
    37    33    32    1
    38   114   115   ar
    39   114   116   ar
    40   115   117   ar
    41    32    31    1
    42   116   118   ar
    43    31    30    1
    44   117   119   ar
    45   118   119   ar
    46    92    90   ar
    47    11    12    2
    48    11    10    1
    49    30    29    1
    50    29    26    1
    51    90    89    1
    52    90    91   ar
    53    18    17    1
    54    89    86    1
    55    10     9    1
    56    27    26    1
    57    27    28    2
    58    13    14    1
    59    26    25    1
    60    17    14    1
    61    17    19    1
    62    93    94    1
    63    37    36    2
    64    14    15    1
    65    87    86    1
    66    87    88    2
    67    86    85    1
    68    34    35    1
    69     9     3   am
    70    38    40    1
    71    38    35    1
    72    38    39    1
    73    99    98    1
    74    47    45    1
    75    36    35    1
    76     4     3    2
    77    94    97    1
    78    94    95    1
    79     3     2    1
    80    85    83   am
    81    16    15    2
    82    97    98    1
    83    46    45    1
    84    98   100    1
    85    96    95    2
    86    45    42    1
    87    83    84    2
    88    83    82    1
    89     2     5    1
    90     2     1    1
    91     5     6    1
    92    42    41    1
    93    42    43    1
    94    23    22    2
    95    82    81    1
    96    24    21    1
    97    22    21    1
    98     7     6    1
    99     6     8    1
   100    55    54   ar
   101    48    43   am
   102    48    49    1
   103    43    44    2
   104    51    50    2
   105    74    73    1
   106    21    20    1
   107    54    53    1
   108    54    56   ar
   109    73    70    1
   110    53    52    1
   111    52    49    1
   112    49    50    1
   113    50    57   am
   114    72    71    2
   115    69    70    1
   116    69    59   am
   117    70    71    1
   118    57    58    1
   119    58    59    1
   120    58    61    1
   121    71    75   am
   122    59    60    2
   123    63    65   ar
   124    63    62   ar
   125    65    67   ar
   126    61    62    1
   127    62    64   ar
   128    75    76    1
   129    77    78    2
   130    77    76    1
   131    67    68    1
   132    67    66   ar
   133    76    79    1
   134    64    66   ar
   135    79    80    1
