@<TRIPOS>MOLECULE
tmp/2i14B01.pdb
 122 119 0 0 0
SMALL
GASTEIGER

@<TRIPOS>ATOM
      1  N        175.1990  149.9850 -113.6940 N.3   134  PHE134     -0.1241
      2  CA       176.1480  149.8870 -114.8190 C.3   134  PHE134      0.1605
      3  C        175.4710  150.2210 -116.1540 C.2   134  PHE134      0.2264
      4  O        176.1260  150.2180 -117.2260 O.2   134  PHE134     -0.2867
      5  CB       176.6850  148.4560 -114.9650 C.3   134  PHE134      0.0534
      6  CG       177.6500  148.0230 -113.9000 C.ar  134  PHE134     -0.0203
      7  CD1      178.0850  148.9020 -112.9080 C.ar  134  PHE134     -0.0042
      8  CD2      178.1510  146.7110 -113.9100 C.ar  134  PHE134     -0.0042
      9  CE1      179.0090  148.4870 -111.9400 C.ar  134  PHE134     -0.0003
     10  CE2      179.0750  146.2710 -112.9540 C.ar  134  PHE134     -0.0003
     11  CZ       179.5090  147.1610 -111.9630 C.ar  134  PHE134     -0.0000
     12  N        175.2020  152.9220 -120.3350 N.3   137  ARG137     -0.1231
     13  CA       175.6780  152.7240 -121.7100 C.3   137  ARG137      0.1694
     14  C        174.5110  152.4480 -122.6550 C.2   137  ARG137      0.2592
     15  O        174.6620  152.5160 -123.8660 O.2   137  ARG137     -0.2718
     16  CB       176.6650  151.5590 -121.8080 C.3   137  ARG137      0.0321
     17  CG       176.0700  150.2580 -121.3630 C.3   137  ARG137      0.0489
     18  CD       176.8100  149.0500 -121.9140 C.3   137  ARG137      0.2205
     19  NE       178.2660  149.0370 -121.7160 N.pl3 137  ARG137     -0.0865
     20  CZ       178.9340  149.6080 -120.7110 C.cat 137  ARG137      0.5346
     21  NH1      178.3120  150.2920 -119.7510 N.pl3 137  ARG137      0.1354
     22  NH2      180.2460  149.4560 -120.6500 N.pl3 137  ARG137      0.1354
     23  N        173.3480  152.1400 -122.1060 N.am  138  HIS138     -0.1976
     24  CA       172.2140  151.8510 -122.9660 C.3   138  HIS138      0.1656
     25  C        171.3140  153.0700 -123.1960 C.2   138  HIS138      0.2291
     26  O        170.2750  152.9650 -123.8500 O.2   138  HIS138     -0.2864
     27  CB       171.3820  150.6990 -122.3890 C.3   138  HIS138      0.0771
     28  CG       172.1730  149.4660 -122.0780 C.ar  138  HIS138      0.0820
     29  ND1      172.6610  149.1900 -120.8180 N.ar  138  HIS138     -0.2267
     30  CD2      172.5310  148.4170 -122.8560 C.ar  138  HIS138      0.1154
     31  CE1      173.2800  148.0240 -120.8310 C.ar  138  HIS138      0.1986
     32  NE2      173.2160  147.5320 -122.0550 N.ar  138  HIS138     -0.2212
     33  N        186.8620  145.6570 -114.3610 N.3   176  MET176     -0.1231
     34  CA       187.7080  145.5070 -115.5470 C.3   176  MET176      0.1687
     35  C        186.9300  145.2440 -116.8160 C.2   176  MET176      0.2434
     36  O        185.9670  144.4760 -116.8190 O.2   176  MET176     -0.2733
     37  CB       188.6490  144.3290 -115.4040 C.3   176  MET176      0.0400
     38  CG       189.6880  144.4160 -114.3280 C.3   176  MET176      0.0596
     39  SD       190.5360  142.8220 -114.3210 S.3   176  MET176     -0.1393
     40  CE       191.0720  142.7230 -116.0560 C.3   176  MET176      0.0692
     41  N        187.3590  145.8640 -117.9240 N.am  177  PRO177     -0.2718
     42  CA       186.6990  145.6900 -119.2220 C.3   177  PRO177      0.1535
     43  C        187.2990  144.4960 -119.9340 C.2   177  PRO177      0.2598
     44  O        188.3600  144.0140 -119.5600 O.2   177  PRO177     -0.2715
     45  CB       187.0210  146.9890 -119.9650 C.3   177  PRO177      0.0310
     46  CG       187.3390  147.9600 -118.8730 C.3   177  PRO177      0.0237
     47  CD       188.1440  147.1070 -117.9190 C.3   177  PRO177      0.0939
     48  N        186.6130  144.0260 -120.9640 N.am  178  HIS178     -0.1974
     49  CA       187.1010  142.9070 -121.7430 C.3   178  HIS178      0.1656
     50  C        188.1810  143.4330 -122.6590 C.2   178  HIS178      0.2291
     51  O        189.0910  142.7060 -123.0490 O.2   178  HIS178     -0.2864
     52  CB       185.9740  142.3210 -122.5760 C.3   178  HIS178      0.0771
     53  CG       185.2770  141.1830 -121.9160 C.ar  178  HIS178      0.0820
     54  ND1      185.8000  139.9090 -121.8920 N.ar  178  HIS178     -0.2267
     55  CD2      184.1240  141.1350 -121.2100 C.ar  178  HIS178      0.1154
     56  CE1      184.9980  139.1230 -121.1960 C.ar  178  HIS178      0.1986
     57  NE2      183.9750  139.8420 -120.7700 N.ar  178  HIS178     -0.2212
     58  N        184.5870  138.3800 -111.2180 N.3   233  ARG233     -0.1245
     59  CA       183.3540  138.7860 -111.8990 C.3   233  ARG233      0.1563
     60  C        182.8970  137.7930 -112.9550 C.2   233  ARG233      0.2260
     61  O        183.6760  137.3860 -113.8150 O.2   233  ARG233     -0.2867
     62  CB       183.5130  140.1550 -112.5660 C.3   233  ARG233      0.0307
     63  CG       182.1820  140.8160 -112.8760 C.3   233  ARG233      0.0489
     64  CD       182.3500  142.2010 -113.4730 C.3   233  ARG233      0.2205
     65  NE       182.4100  142.1510 -114.9270 N.pl3 233  ARG233     -0.0865
     66  CZ       182.5520  143.2150 -115.7130 C.cat 233  ARG233      0.5346
     67  NH1      182.6560  144.4310 -115.1930 N.pl3 233  ARG233      0.1354
     68  NH2      182.5830  143.0620 -117.0260 N.pl3 233  ARG233      0.1354
     69  N        180.1490  137.2330 -115.9530 N.3   235  ASP235     -0.1239
     70  CA       179.2130  137.8820 -116.8530 C.3   235  ASP235      0.1674
     71  C        179.0360  136.9950 -118.0780 C.2   235  ASP235      0.2266
     72  O        179.0660  137.4650 -119.2070 O.2   235  ASP235     -0.2867
     73  CB       179.7470  139.2440 -117.2880 C.3   235  ASP235      0.1410
     74  CG       181.0390  139.1370 -118.0740 C.2   235  ASP235      0.3668
     75  OD1      181.3580  140.0740 -118.8420 O.co2 235  ASP235     -0.2456
     76  OD2      181.7420  138.1140 -117.9210 O.co2 235  ASP235     -0.2456
     77  N        177.3570  140.2630 -113.0920 N.3   268  SER268     -0.1202
     78  CA       176.7070  141.3300 -113.8100 C.3   268  SER268      0.2020
     79  C        176.3960  140.7550 -115.1810 C.2   268  SER268      0.2619
     80  O        176.9950  139.7550 -115.6000 O.2   268  SER268     -0.2717
     81  CB       177.6390  142.5250 -113.9390 C.3   268  SER268      0.2103
     82  OG       178.6890  142.2390 -114.8410 O.3   268  SER268     -0.2182
     83  N        175.4370  141.3620 -115.8700 N.am  269  GLY269     -0.1942
     84  CA       175.1080  140.8680 -117.1870 C.3   269  GLY269      0.2014
     85  C        173.6490  140.5410 -117.3560 C.2   269  GLY269      0.2639
     86  O        173.1520  139.5420 -116.8610 O.2   269  GLY269     -0.2714
     87  N        172.9710  141.4100 -118.0840 N.am  270  GLY270     -0.1939
     88  CA       171.5630  141.2350 -118.3450 C.3   270  GLY270      0.2014
     89  C        170.7910  140.4920 -117.2730 C.2   270  GLY270      0.2638
     90  O        170.4800  139.3090 -117.4440 O.2   270  GLY270     -0.2714
     91  N        170.4830  141.1570 -116.1630 N.am  271  LEU271     -0.1977
     92  CA       169.7050  140.4930 -115.1370 C.3   271  LEU271      0.1596
     93  C        168.6710  141.3810 -114.4650 C.2   271  LEU271      0.2287
     94  O        168.9080  142.5500 -114.2300 O.2   271  LEU271     -0.2864
     95  CB       170.6310  139.8420 -114.1140 C.3   271  LEU271      0.0297
     96  CG       171.9450  140.4990 -113.7160 C.3   271  LEU271      0.0022
     97  CD1      171.6920  141.6190 -112.7180 C.3   271  LEU271      0.0001
     98  CD2      172.8440  139.4320 -113.0850 C.3   271  LEU271      0.0001
     99  N        175.9450  143.4930 -110.4290 N.3   287  GLY287     -0.1210
    100  CA       176.1820  144.5810 -111.3630 C.3   287  GLY287      0.1956
    101  C        174.9730  144.6250 -112.3040 C.2   287  GLY287      0.2612
    102  O        174.8290  143.7520 -113.1630 O.2   287  GLY287     -0.2717
    103  N        174.0970  145.6130 -112.1510 N.am  288  VAL288     -0.1965
    104  CA       172.9240  145.6750 -113.0070 C.3   288  VAL288      0.1727
    105  C        172.9500  146.8170 -113.9950 C.2   288  VAL288      0.2617
    106  O        173.2750  147.9500 -113.6380 O.2   288  VAL288     -0.2715
    107  CB       171.6470  145.7840 -112.1690 C.3   288  VAL288      0.0290
    108  CG1      170.4400  145.9680 -113.0610 C.3   288  VAL288      0.0023
    109  CG2      171.4940  144.5270 -111.3210 C.3   288  VAL288      0.0023
    110  N        172.6100  146.5160 -115.2440 N.am  289  GLY289     -0.1940
    111  CA       172.5920  147.5480 -116.2700 C.3   289  GLY289      0.2014
    112  C        171.2060  148.0460 -116.6780 C.2   289  GLY289      0.2639
    113  O        170.5450  148.7860 -115.9300 O.2   289  GLY289     -0.2714
    114  N        170.7760  147.6050 -117.8640 N.am  290  GLY290     -0.1939
    115  CA       169.5010  147.9890 -118.4450 C.3   290  GLY290      0.2014
    116  C        168.2290  147.8910 -117.6220 C.2   290  GLY290      0.2638
    117  O        167.3560  148.7440 -117.7370 O.2   290  GLY290     -0.2714
    118  N        168.1050  146.8540 -116.8010 N.am  291  ALA291     -0.1977
    119  CA       166.9140  146.6750 -115.9740 C.3   291  ALA291      0.1597
    120  C        166.6490  147.8540 -115.0450 C.2   291  ALA291      0.2287
    121  O        165.5520  147.9740 -114.4750 O.2   291  ALA291     -0.2864
    122  CB       167.0380  145.4090 -115.1570 C.3   291  ALA291      0.0319
@<TRIPOS>BOND
     1    15    14    2
     2    26    25    2
     3    25    24    1
     4    51    50    2
     5    24    27    1
     6    24    23    1
     7    30    28   ar
     8    30    32   ar
     9    50    49    1
    10    14    23   am
    11    14    13    1
    12    52    53    1
    13    52    49    1
    14    27    28    1
    15    28    29   ar
    16    32    31   ar
    17    53    54   ar
    18    53    55   ar
    19    18    19    1
    20    18    17    1
    21    54    56   ar
    22    16    13    1
    23    16    17    1
    24    49    48    1
    25    19    20    2
    26    13    12    1
    27    55    57   ar
    28    56    57   ar
    29    48    43   am
    30    31    29   ar
    31    20    22    1
    32    20    21    1
    33    45    42    1
    34    45    46    1
    35    43    44    2
    36    43    42    1
    37    42    41    1
    38    72    71    2
    39    46    47    1
    40    75    74   ar
    41   115   114    1
    42   115   116    1
    43    88    87    1
    44    88    89    1
    45    87    85   am
    46    71    70    1
    47    74    76   ar
    48    74    73    1
    49    41    47    1
    50    41    35   am
    51   114   112   am
    52   117   116    2
    53   116   118   am
    54    90    89    2
    55    85    84    1
    56    85    86    2
    57    73    70    1
    58    89    91   am
    59     4     3    2
    60    84    83    1
    61    68    66    1
    62    70    69    1
    63    36    35    2
    64    35    34    1
    65   118   119    1
    66   112   111    1
    67   112   113    2
    68   111   110    1
    69    91    92    1
    70     3     2    1
    71    40    39    1
    72   119   122    1
    73   119   120    1
    74    83    79   am
    75    66    67    1
    76    66    65    2
    77    80    79    2
    78    34    37    1
    79    34    33    1
    80    37    38    1
    81   110   105   am
    82    79    78    1
    83    92    93    1
    84    92    95    1
    85   120   121    2
    86     5     2    1
    87     5     6    1
    88    65    64    1
    89    82    81    1
    90     2     1    1
    91    93    94    2
    92    38    39    1
    93    95    96    1
    94   105   106    2
    95   105   104    1
    96    81    78    1
    97     8     6   ar
    98     8    10   ar
    99     6     7   ar
   100    61    60    2
   101    78    77    1
   102    96    98    1
   103    96    97    1
   104    64    63    1
   105   102   101    2
   106   108   107    1
   107   104   107    1
   108   104   103    1
   109    60    59    1
   110    10    11   ar
   111     7     9   ar
   112    63    62    1
   113    62    59    1
   114   101   103   am
   115   101   100    1
   116   107   109    1
   117    11     9   ar
   118    59    58    1
   119   100    99    1
