@<TRIPOS>MOLECULE
tmp/2i19B00.pdb
 156 143 0 0 0
SMALL
GASTEIGER

@<TRIPOS>ATOM
      1  N         15.9070   23.8370   38.4870 N.3    93  TYR93      -0.1227
      2  CA        16.2490   23.0000   39.6280 C.3    93  TYR93       0.1736
      3  C         17.7010   22.5450   39.5980 C.2    93  TYR93       0.2595
      4  O         18.3740   22.4760   40.6240 O.2    93  TYR93      -0.2718
      5  CB        15.3130   21.7740   39.7000 C.3    93  TYR93       0.0548
      6  CG        14.0250   22.1650   40.4000 C.ar   93  TYR93      -0.0200
      7  CD1       14.0850   22.5610   41.7330 C.ar   93  TYR93      -0.0009
      8  CD2       12.8010   22.1510   39.7590 C.ar   93  TYR93      -0.0009
      9  CE1       12.9390   22.9300   42.4140 C.ar   93  TYR93       0.0417
     10  CE2       11.6450   22.5210   40.4310 C.ar   93  TYR93       0.0417
     11  CZ        11.7210   22.9080   41.7520 C.ar   93  TYR93       0.1957
     12  OH        10.6000   23.2840   42.4510 O.3    93  TYR93      -0.2866
     13  N         18.1900   22.2380   38.4150 N.am   94  LEU94      -0.1980
     14  CA        19.5720   21.8020   38.2350 C.3    94  LEU94       0.1596
     15  C         20.5440   22.9410   38.5090 C.2    94  LEU94       0.2287
     16  O         21.5720   22.7580   39.1700 O.2    94  LEU94      -0.2864
     17  CB        19.7190   21.2600   36.8180 C.3    94  LEU94       0.0297
     18  CG        19.8370   19.7580   36.5740 C.3    94  LEU94       0.0022
     19  CD1       19.1440   18.9440   37.6540 C.3    94  LEU94       0.0001
     20  CD2       19.3050   19.3920   35.1930 C.3    94  LEU94       0.0001
     21  N         20.5310   23.3810   42.2440 N.3    97  ASP97      -0.1225
     22  CA        21.0490   22.2140   42.9420 C.3    97  ASP97       0.1805
     23  C         22.5640   22.1020   42.8270 C.2    97  ASP97       0.2597
     24  O         23.2300   21.5990   43.7330 O.2    97  ASP97      -0.2718
     25  CB        20.3890   20.9400   42.4090 C.3    97  ASP97       0.1424
     26  CG        20.8160   19.7020   43.1790 C.2    97  ASP97       0.3668
     27  OD1       21.6000   18.9140   42.6050 O.co2  97  ASP97      -0.2456
     28  OD2       20.3770   19.5100   44.3330 O.co2  97  ASP97      -0.2456
     29  N         23.1540   22.5650   41.7260 N.am   98  ASP98      -0.1974
     30  CA        24.6200   22.4950   41.6620 C.3    98  ASP98       0.1709
     31  C         25.2340   23.5050   42.6260 C.2    98  ASP98       0.2293
     32  O         26.2510   23.2370   43.2620 O.2    98  ASP98      -0.2864
     33  CB        25.1060   22.7300   40.2340 C.3    98  ASP98       0.1436
     34  CG        24.7240   21.5710   39.3280 C.2    98  ASP98       0.3671
     35  OD1       24.5910   21.7870   38.1050 O.co2  98  ASP98      -0.2456
     36  OD2       24.5560   20.4460   39.8500 O.co2  98  ASP98      -0.2456
     37  N         24.4550   22.0120   45.9200 N.3   101  ASP101     -0.1239
     38  CA        25.2520   20.8030   46.0670 C.3   101  ASP101      0.1674
     39  C         26.7420   21.0680   45.8480 C.2   101  ASP101      0.2266
     40  O         27.5600   20.1530   45.9940 O.2   101  ASP101     -0.2867
     41  CB        24.7850   19.7200   45.1000 C.3   101  ASP101      0.1410
     42  CG        23.4530   19.0900   45.4320 C.2   101  ASP101      0.3668
     43  OD1       22.8620   19.4200   46.4770 O.co2 101  ASP101     -0.2456
     44  OD2       22.9970   18.2410   44.6330 O.co2 101  ASP101     -0.2456
     45  N         28.4390   21.1630   43.3770 N.3   103  SER103     -0.1217
     46  CA        28.9470   20.3770   42.2650 C.3   103  SER103      0.1889
     47  C         29.8770   21.2160   41.3990 C.2   103  SER103      0.2288
     48  O         29.9230   22.4400   41.5350 O.2   103  SER103     -0.2866
     49  CB        27.7700   19.8400   41.4500 C.3   103  SER103      0.2089
     50  OG        26.7280   19.3740   42.2910 O.3   103  SER103     -0.2183
     51  N         28.7200   19.3610   35.0090 N.3   106  ARG106     -0.1245
     52  CA        27.4250   18.7780   34.6690 C.3   106  ARG106      0.1563
     53  C         27.3860   18.4870   33.1760 C.2   106  ARG106      0.2260
     54  O         27.5130   19.3660   32.3280 O.2   106  ARG106     -0.2867
     55  CB        26.2660   19.6860   35.0940 C.3   106  ARG106      0.0307
     56  CG        25.0820   19.6150   34.1480 C.3   106  ARG106      0.0489
     57  CD        23.7470   19.7290   34.8450 C.3   106  ARG106      0.2205
     58  NE        23.4720   18.5850   35.7180 N.pl3 106  ARG106     -0.0865
     59  CZ        23.1040   18.7580   36.9860 C.cat 106  ARG106      0.5346
     60  NH1       22.9850   19.9820   37.4740 N.pl3 106  ARG106      0.1354
     61  NH2       22.8570   17.7230   37.7640 N.pl3 106  ARG106      0.1354
     62  N          8.5000   19.0790   43.8320 N.3   162  THR162     -0.1218
     63  CA         9.9280   18.9400   43.5960 C.3   162  THR162      0.1862
     64  C         10.7480   19.7180   44.6270 C.2   162  THR162      0.2287
     65  O         11.8090   19.2520   45.0480 O.2   162  THR162     -0.2866
     66  CB        10.3080   19.3920   42.1730 C.3   162  THR162      0.1770
     67  OG1        9.4590   18.7900   41.1870 O.3   162  THR162     -0.2211
     68  CG2       11.7290   18.9420   41.8570 C.3   162  THR162      0.0375
     69  N         13.4890   18.3470   47.3870 N.3   166  GLN166     -0.1245
     70  CA        14.7430   19.0350   47.6380 C.3   166  GLN166      0.1566
     71  C         14.9110   19.3470   49.1200 C.2   166  GLN166      0.2260
     72  O         16.0090   19.3430   49.6870 O.2   166  GLN166     -0.2867
     73  CB        14.8350   20.3320   46.8320 C.3   166  GLN166      0.0367
     74  CG        15.3570   20.2080   45.4260 C.3   166  GLN166      0.0905
     75  CD        16.7060   19.5460   45.2670 C.2   166  GLN166      0.2608
     76  OE1       16.7990   18.3190   45.2040 O.2   166  GLN166     -0.2717
     77  NE2       17.7650   20.3410   45.1830 N.am  166  GLN166     -0.0878
     78  N         15.8540   15.7030   50.6010 N.3   169  ASP169     -0.1239
     79  CA        17.2330   15.4210   50.2570 C.3   169  ASP169      0.1674
     80  C         18.2340   16.1230   51.1640 C.2   169  ASP169      0.2266
     81  O         19.1700   15.5310   51.6910 O.2   169  ASP169     -0.2867
     82  CB        17.4680   15.8850   48.8130 C.3   169  ASP169      0.1410
     83  CG        18.8380   15.5440   48.2720 C.2   169  ASP169      0.3668
     84  OD1       19.7900   16.2910   48.5680 O.co2 169  ASP169     -0.2456
     85  OD2       18.9560   14.5340   47.5480 O.co2 169  ASP169     -0.2456
     86  N         11.3620   14.4350   45.0310 N.3   206  LYS206     -0.1231
     87  CA        12.4720   15.0830   44.3640 C.3   206  LYS206      0.1693
     88  C         12.6510   14.5690   42.9450 C.2   206  LYS206      0.2592
     89  O         13.2250   15.2760   42.1050 O.2   206  LYS206     -0.2718
     90  CB        13.7610   14.8740   45.1690 C.3   206  LYS206      0.0285
     91  CG        14.9960   14.6950   44.2970 C.3   206  LYS206      0.0035
     92  CD        16.2640   14.6040   45.1300 C.3   206  LYS206      0.0206
     93  CE        16.9860   13.2800   44.9060 C.3   206  LYS206      0.1093
     94  NZ        18.3940   13.3730   45.3910 N.3   206  LYS206     -0.1314
     95  N         12.1840   13.3540   42.6290 N.am  207  THR207     -0.1953
     96  CA        12.5110   12.8470   41.2960 C.3   207  THR207      0.1897
     97  C         11.3450   12.3690   40.4450 C.2   207  THR207      0.2313
     98  O         11.1640   12.8200   39.3120 O.2   207  THR207     -0.2863
     99  CB        13.4790   11.6400   41.3920 C.3   207  THR207      0.1794
    100  OG1       14.7770   12.0960   41.7530 O.3   207  THR207     -0.2208
    101  CG2       13.5970   10.9740   40.0260 C.3   207  THR207      0.0378
    102  N          8.4520   14.9740   38.6080 N.3   210  TYR210     -0.1241
    103  CA         8.6820   15.8040   37.4190 C.3   210  TYR210      0.1605
    104  C          9.2770   14.9420   36.3150 C.2   210  TYR210      0.2264
    105  O          9.2040   15.2860   35.1330 O.2   210  TYR210     -0.2867
    106  CB         9.5560   17.0050   37.7550 C.3   210  TYR210      0.0534
    107  CG        11.0480   16.7990   37.6400 C.ar  210  TYR210     -0.0201
    108  CD1       11.7350   17.1160   36.4690 C.ar  210  TYR210     -0.0009
    109  CD2       11.7800   16.2850   38.7090 C.ar  210  TYR210     -0.0009
    110  CE1       13.0960   16.9200   36.3740 C.ar  210  TYR210      0.0417
    111  CE2       13.1460   16.0910   38.6250 C.ar  210  TYR210      0.0417
    112  CZ        13.7950   16.4140   37.4490 C.ar  210  TYR210      0.1957
    113  OH        15.1540   16.2410   37.3220 O.3   210  TYR210     -0.2866
    114  N         16.0800    6.9270   39.9820 N.3   246  GLN246     -0.1245
    115  CA        17.0100    7.5230   40.9380 C.3   246  GLN246      0.1566
    116  C         18.0380    6.5270   41.4540 C.2   246  GLN246      0.2260
    117  O         19.2260    6.8100   41.5520 O.2   246  GLN246     -0.2867
    118  CB        16.2180    8.1060   42.1120 C.3   246  GLN246      0.0367
    119  CG        17.0340    9.0730   42.9510 C.3   246  GLN246      0.0905
    120  CD        17.6700   10.1670   42.1080 C.2   246  GLN246      0.2608
    121  OE1       16.9960   10.9050   41.3890 O.2   246  GLN246     -0.2717
    122  NE2       18.9930   10.2590   42.2040 N.am  246  GLN246     -0.0878
    123  N         20.4770    6.2820   39.2730 N.3   249  ASP249     -0.1239
    124  CA        21.2820    7.4840   39.4240 C.3   249  ASP249      0.1674
    125  C         22.3430    7.3440   40.5180 C.2   249  ASP249      0.2266
    126  O         23.5100    7.6870   40.3360 O.2   249  ASP249     -0.2867
    127  CB        20.3860    8.6840   39.7690 C.3   249  ASP249      0.1410
    128  CG        20.7110    9.8440   38.8430 C.2   249  ASP249      0.3668
    129  OD1       20.6840    9.5710   37.6220 O.co2 249  ASP249     -0.2456
    130  OD2       20.9860   10.9520   39.3430 O.co2 249  ASP249     -0.2456
    131  N         30.7750   13.8750   35.2650 N.3   263  LYS263     -0.1245
    132  CA        30.9080   14.5060   36.5660 C.3   263  LYS263      0.1561
    133  C         31.4410   13.5650   37.6470 C.2   263  LYS263      0.2260
    134  O         30.7140   12.6780   38.1070 O.2   263  LYS263     -0.2867
    135  CB        29.5590   15.0550   37.0590 C.3   263  LYS263      0.0271
    136  CG        28.4600   14.0110   37.1230 C.3   263  LYS263      0.0035
    137  CD        27.0750   14.6230   36.9940 C.3   263  LYS263      0.0206
    138  CE        26.3030   14.4230   38.2950 C.3   263  LYS263      0.1093
    139  NZ        27.1360   13.7480   39.3250 N.3   263  LYS263     -0.1314
    140  N         28.6740   11.8640   45.9940 N.3   267  ASP267     -0.1239
    141  CA        27.6970   11.3400   46.9380 C.3   267  ASP267      0.1674
    142  C         28.3640   10.8400   48.2170 C.2   267  ASP267      0.2266
    143  O         28.0430   11.3120   49.3110 O.2   267  ASP267     -0.2867
    144  CB        26.8730   10.2210   46.3000 C.3   267  ASP267      0.1410
    145  CG        25.5310   10.6560   45.7500 C.2   267  ASP267      0.3668
    146  OD1       24.6000   10.9600   46.5340 O.co2 267  ASP267     -0.2456
    147  OD2       25.3770   10.6880   44.5080 O.co2 267  ASP267     -0.2456
    148  N         25.8690   11.7340   50.8350 N.3   272  LYS272     -0.1245
    149  CA        24.4280   11.8110   50.5730 C.3   272  LYS272      0.1561
    150  C         23.6940   10.5720   51.0600 C.2   272  LYS272      0.2260
    151  O         24.2750    9.5680   51.4720 O.2   272  LYS272     -0.2867
    152  CB        24.2190   12.0590   49.0780 C.3   272  LYS272      0.0271
    153  CG        24.5470   13.4960   48.6790 C.3   272  LYS272      0.0035
    154  CD        23.5900   14.4730   49.3430 C.3   272  LYS272      0.0206
    155  CE        22.1430   14.0490   49.1680 C.3   272  LYS272      0.1093
    156  NZ        21.6760   13.1190   50.2370 N.3   272  LYS272     -0.1314
@<TRIPOS>BOND
     1    54    53    2
     2    53    52    1
     3    56    57    1
     4    56    55    1
     5    52    51    1
     6    52    55    1
     7    57    58    1
     8   105   104    2
     9    20    18    1
    10   131   132    1
    11    58    59    2
    12   104   103    1
    13   110   108   ar
    14   110   112   ar
    15   108   107   ar
    16   132   135    1
    17   132   133    1
    18    18    17    1
    19    18    19    1
    20    17    14    1
    21    59    60    1
    22    59    61    1
    23   137   136    1
    24   137   138    1
    25   135   136    1
    26   113   112    1
    27   103   106    1
    28   103   102    1
    29   112   111   ar
    30   129   128   ar
    31   107   106    1
    32   107   109   ar
    33   133   134    2
    34    35    34   ar
    35    14    13    1
    36    14    15    1
    37   138   139    1
    38    13     3   am
    39     1     2    1
    40    15    16    2
    41   111   109   ar
    42   128   130   ar
    43   128   127    1
    44   123   124    1
    45    98    97    2
    46    34    36   ar
    47    34    33    1
    48   124   127    1
    49   124   125    1
    50     3     2    1
    51     3     4    2
    52     2     5    1
    53     5     6    1
    54     8     6   ar
    55     8    10   ar
    56   114   115    1
    57   101    99    1
    58    33    30    1
    59   126   125    2
    60     6     7   ar
    61    10    11   ar
    62    97    96    1
    63   115   116    1
    64   115   118    1
    65    67    66    1
    66    96    99    1
    67    96    95    1
    68   121   120    2
    69    99   100    1
    70    47    48    2
    71    47    46    1
    72    49    46    1
    73    49    50    1
    74   116   117    2
    75    30    29    1
    76    30    31    1
    77    29    23   am
    78     7     9   ar
    79    11     9   ar
    80    11    12    1
    81    68    66    1
    82    89    88    2
    83   120   122   am
    84   120   119    1
    85   118   119    1
    86    66    63    1
    87    21    22    1
    88    46    45    1
    89    25    22    1
    90    25    26    1
    91    27    26   ar
    92    31    32    2
    93    95    88   am
    94    23    22    1
    95    23    24    2
    96    88    87    1
    97    26    28   ar
    98    63    62    1
    99    63    64    1
   100    91    92    1
   101    91    90    1
   102    87    86    1
   103    87    90    1
   104   147   145   ar
   105    64    65    2
   106    44    42   ar
   107    93    92    1
   108    93    94    1
   109    41    42    1
   110    41    38    1
   111    77    75   am
   112    76    75    2
   113    75    74    1
   114    74    73    1
   115    42    43   ar
   116   145   144    1
   117   145   146   ar
   118    39    40    2
   119    39    38    1
   120    37    38    1
   121   140   141    1
   122   144   141    1
   123    73    70    1
   124   141   142    1
   125    69    70    1
   126    85    83   ar
   127    70    71    1
   128   142   143    2
   129    83    84   ar
   130    83    82    1
   131   153   152    1
   132   153   154    1
   133    82    79    1
   134   152   149    1
   135    71    72    2
   136   155   154    1
   137   155   156    1
   138    79    78    1
   139    79    80    1
   140   149   148    1
   141   149   150    1
   142   150   151    2
   143    80    81    2
