@<TRIPOS>MOLECULE
tmp/2i1mA00.pdb
 167 159 0 0 0
SMALL
GASTEIGER

@<TRIPOS>ATOM
      1  N         38.5250   45.2580  -15.2300 N.3    38  LYS38      -0.1245
      2  CA        38.1340   44.2830  -14.2180 C.3    38  LYS38       0.1561
      3  C         38.7900   44.5320  -12.8600 C.2    38  LYS38       0.2260
      4  O         39.8980   45.0680  -12.7820 O.2    38  LYS38      -0.2867
      5  CB        38.4920   42.8740  -14.6960 C.3    38  LYS38       0.0271
      6  CG        39.9720   42.7000  -15.0010 C.3    38  LYS38       0.0035
      7  CD        40.3100   41.2770  -15.4220 C.3    38  LYS38       0.0206
      8  CE        40.0940   40.2920  -14.2870 C.3    38  LYS38       0.1093
      9  NZ        40.4440   38.9030  -14.7050 N.3    38  LYS38      -0.1314
     10  N         40.8120   43.3590  -10.0700 N.3    40  LEU40      -0.1231
     11  CA        41.7980   42.3310   -9.7560 C.3    40  LEU40       0.1693
     12  C         41.5980   41.7150   -8.3790 C.2    40  LEU40       0.2592
     13  O         41.8120   40.5170   -8.1860 O.2    40  LEU40      -0.2718
     14  CB        43.2060   42.9190   -9.8520 C.3    40  LEU40       0.0284
     15  CG        43.8850   42.7820  -11.2170 C.3    40  LEU40       0.0019
     16  CD1       42.8400   42.7770  -12.3260 C.3    40  LEU40       0.0001
     17  CD2       44.9010   43.9070  -11.3900 C.3    40  LEU40       0.0001
     18  N         41.1960   42.5380   -7.4200 N.am   41  GLY41      -0.1957
     19  CA        40.9800   42.0490   -6.0700 C.3    41  GLY41       0.1869
     20  C         40.4680   43.1800   -5.2050 C.2    41  GLY41       0.2309
     21  O         40.6490   44.3510   -5.5450 O.2    41  GLY41      -0.2863
     22  N         41.7490   47.1600   -6.0560 N.3    48  VAL48      -0.1245
     23  CA        42.6710   47.4350   -7.1430 C.3    48  VAL48       0.1561
     24  C         42.0130   46.9150   -8.4170 C.2    48  VAL48       0.2260
     25  O         41.4990   45.7940   -8.4540 O.2    48  VAL48      -0.2867
     26  CB        44.0540   46.7430   -6.9230 C.3    48  VAL48       0.0252
     27  CG1       43.8900   45.2190   -6.8350 C.3    48  VAL48       0.0019
     28  CG2       45.0060   47.1230   -8.0530 C.3    48  VAL48       0.0019
     29  N         47.4820   48.6720  -13.0840 N.3    66  ALA66      -0.1245
     30  CA        46.6330   48.3760  -11.9380 C.3    66  ALA66       0.1562
     31  C         46.3830   49.6950  -11.2210 C.2    66  ALA66       0.2260
     32  O         47.2890   50.5180  -11.1050 O.2    66  ALA66      -0.2867
     33  CB        47.3380   47.3970  -11.0050 C.3    66  ALA66       0.0290
     34  N         44.8620   51.2900   -7.6330 N.3    68  LYS68      -0.1245
     35  CA        44.3320   51.0750   -6.2950 C.3    68  LYS68       0.1561
     36  C         43.5540   52.3230   -5.8700 C.2    68  LYS68       0.2260
     37  O         43.8980   53.4450   -6.2520 O.2    68  LYS68      -0.2867
     38  CB        45.4610   50.7810   -5.3040 C.3    68  LYS68       0.0271
     39  CG        44.9840   50.0220   -4.0720 C.3    68  LYS68       0.0035
     40  CD        46.1330   49.5180   -3.2100 C.3    68  LYS68       0.0206
     41  CE        46.8630   50.6600   -2.5400 C.3    68  LYS68       0.1093
     42  NZ        45.9340   51.4380   -1.6780 N.3    68  LYS68      -0.1314
     43  N         56.4470   45.9330   -7.5660 N.3    99  VAL99      -0.1245
     44  CA        55.3110   46.4010   -8.3570 C.3    99  VAL99       0.1561
     45  C         55.4860   47.9230   -8.3180 C.2    99  VAL99       0.2260
     46  O         55.0230   48.6040   -7.3960 O.2    99  VAL99      -0.2867
     47  CB        53.9700   46.0040   -7.7060 C.3    99  VAL99       0.0252
     48  CG1       52.8160   46.5980   -8.4860 C.3    99  VAL99       0.0019
     49  CG2       53.8460   44.4840   -7.6660 C.3    99  VAL99       0.0019
     50  N         49.9420   51.5470  -10.4620 N.3   115  THR115     -0.1203
     51  CA        51.1660   50.7550  -10.3950 C.3   115  THR115      0.1994
     52  C         51.2000   49.7550  -11.5490 C.2   115  THR115      0.2618
     53  O         50.2270   49.6120  -12.2930 O.2   115  THR115     -0.2717
     54  CB        51.2380   49.9550   -9.0780 C.3   115  THR115      0.1784
     55  OG1       50.3040   48.8730   -9.1290 O.3   115  THR115     -0.2211
     56  CG2       50.8780   50.8410   -7.8980 C.3   115  THR115      0.0376
     57  N         52.3270   49.0700  -11.6960 N.am  116  GLU116     -0.1965
     58  CA        52.4660   48.0680  -12.7430 C.3   116  GLU116      0.1733
     59  C         51.4450   46.9570  -12.5190 C.2   116  GLU116      0.2616
     60  O         51.0310   46.6920  -11.3910 O.2   116  GLU116     -0.2715
     61  CB        53.8750   47.4750  -12.7400 C.3   116  GLU116      0.0429
     62  CG        54.9650   48.4690  -13.0830 C.3   116  GLU116      0.1163
     63  CD        56.3490   47.8460  -13.0520 C.2   116  GLU116      0.3649
     64  OE1       56.7150   47.2540  -12.0170 O.co2 116  GLU116     -0.2457
     65  OE2       57.0740   47.9500  -14.0640 O.co2 116  GLU116     -0.2457
     66  N         51.0440   46.3100  -13.6040 N.am  117  TYR117     -0.1960
     67  CA        50.0730   45.2280  -13.5470 C.3   117  TYR117      0.1771
     68  C         50.7790   43.8780  -13.7160 C.2   117  TYR117      0.2620
     69  O         51.7140   43.7500  -14.5080 O.2   117  TYR117     -0.2715
     70  CB        49.0300   45.4380  -14.6520 C.3   117  TYR117      0.0574
     71  CG        48.1440   44.2480  -14.9220 C.ar  117  TYR117     -0.0198
     72  CD1       47.2240   43.8100  -13.9780 C.ar  117  TYR117     -0.0009
     73  CD2       48.2370   43.5560  -16.1210 C.ar  117  TYR117     -0.0009
     74  CE1       46.4230   42.7130  -14.2240 C.ar  117  TYR117      0.0417
     75  CE2       47.4410   42.4590  -16.3750 C.ar  117  TYR117      0.0417
     76  CZ        46.5380   42.0420  -15.4250 C.ar  117  TYR117      0.1957
     77  OH        45.7530   40.9440  -15.6750 O.3   117  TYR117     -0.2866
     78  N         50.3370   42.8750  -12.9640 N.am  118  CYS118     -0.1954
     79  CA        50.9410   41.5450  -13.0360 C.3   118  CYS118      0.1843
     80  C         49.9510   40.5220  -13.6250 C.2   118  CYS118      0.2626
     81  O         49.1220   39.9520  -12.9160 O.2   118  CYS118     -0.2714
     82  CB        51.4110   41.1240  -11.6380 C.3   118  CYS118      0.0997
     83  SG        52.6700   42.2370  -10.9100 S.3   118  CYS118     -0.0797
     84  N         50.0680   40.2950  -14.9320 N.am  119  CYS119     -0.1954
     85  CA        49.1810   39.3960  -15.6720 C.3   119  CYS119      0.1843
     86  C         48.9240   37.9780  -15.1640 C.2   119  CYS119      0.2625
     87  O         47.8740   37.4130  -15.4590 O.2   119  CYS119     -0.2714
     88  CB        49.6390   39.3080  -17.1350 C.3   119  CYS119      0.0997
     89  SG        51.3100   38.6510  -17.4110 S.3   119  CYS119     -0.0797
     90  N         49.8490   37.3970  -14.4050 N.am  120  TYR120     -0.1960
     91  CA        49.6530   36.0250  -13.9340 C.3   120  TYR120      0.1771
     92  C         49.0880   35.8400  -12.5280 C.2   120  TYR120      0.2620
     93  O         48.8660   34.7090  -12.0970 O.2   120  TYR120     -0.2715
     94  CB        50.9590   35.2380  -14.0740 C.3   120  TYR120      0.0574
     95  CG        51.4170   35.0830  -15.5110 C.ar  120  TYR120     -0.0198
     96  CD1       52.6650   35.5360  -15.9150 C.ar  120  TYR120     -0.0009
     97  CD2       50.5850   34.5150  -16.4690 C.ar  120  TYR120     -0.0009
     98  CE1       53.0730   35.4350  -17.2290 C.ar  120  TYR120      0.0417
     99  CE2       50.9850   34.4080  -17.7900 C.ar  120  TYR120      0.0417
    100  CZ        52.2290   34.8720  -18.1650 C.ar  120  TYR120      0.1957
    101  OH        52.6290   34.7900  -19.4810 O.3   120  TYR120     -0.2866
    102  N         48.8530   36.9320  -11.8090 N.am  121  GLY121     -0.1940
    103  CA        48.2970   36.8050  -10.4700 C.3   121  GLY121      0.2014
    104  C         49.3000   36.4860   -9.3750 C.2   121  GLY121      0.2638
    105  O         50.5150   36.5920   -9.5780 O.2   121  GLY121     -0.2714
    106  N         48.8000   36.0840   -8.2100 N.am  122  ASP122     -0.1971
    107  CA        49.6850   35.7870   -7.0950 C.3   122  ASP122      0.1709
    108  C         50.3090   34.3980   -7.1400 C.2   122  ASP122      0.2293
    109  O         49.7130   33.4150   -7.6100 O.2   122  ASP122     -0.2864
    110  CB        48.9710   35.9920   -5.7490 C.3   122  ASP122      0.1436
    111  CG        48.0650   34.8480   -5.4010 C.2   122  ASP122      0.3671
    112  OD1       46.9870   34.7450   -6.0170 O.co2 122  ASP122     -0.2456
    113  OD2       48.4380   34.0450   -4.5200 O.co2 122  ASP122     -0.2456
    114  N         51.1350   34.6800   -0.7940 N.3   172  ARG172     -0.1245
    115  CA        49.9340   35.3540   -1.2500 C.3   172  ARG172      0.1563
    116  C         50.2590   36.7740   -1.6970 C.2   172  ARG172      0.2260
    117  O         49.5260   37.3490   -2.4990 O.2   172  ARG172     -0.2867
    118  CB        48.8770   35.3900   -0.1400 C.3   172  ARG172      0.0307
    119  CG        49.3460   36.0960    1.1150 C.3   172  ARG172      0.0489
    120  CD        48.2450   36.2670    2.1430 C.3   172  ARG172      0.2205
    121  NE        48.8150   36.8000    3.3800 N.pl3 172  ARG172     -0.0865
    122  CZ        49.4320   36.0550    4.2870 C.cat 172  ARG172      0.5346
    123  NH1       49.5380   34.7460    4.0980 N.pl3 172  ARG172      0.1354
    124  NH2       49.9750   36.6240    5.3600 N.pl3 172  ARG172      0.1354
    125  N         53.3860   38.5890   -6.6250 N.3   175  LEU175     -0.1245
    126  CA        52.6680   38.5380   -7.8940 C.3   175  LEU175      0.1561
    127  C         53.5780   38.1100   -9.0350 C.2   175  LEU175      0.2260
    128  O         54.7890   38.3050   -8.9800 O.2   175  LEU175     -0.2867
    129  CB        52.0510   39.9090   -8.1990 C.3   175  LEU175      0.0270
    130  CG        50.6590   40.2060   -7.6220 C.3   175  LEU175      0.0019
    131  CD1       50.5170   39.6420   -6.2320 C.3   175  LEU175      0.0001
    132  CD2       50.4190   41.7040   -7.6240 C.3   175  LEU175      0.0001
    133  N         53.1070   46.6360   -1.7130 N.3   186  ASP186     -0.1225
    134  CA        52.2130   46.7690   -0.5760 C.3   186  ASP186      0.1805
    135  C         50.8050   46.5090   -1.1130 C.2   186  ASP186      0.2597
    136  O         50.2690   47.3200   -1.8690 O.2   186  ASP186     -0.2718
    137  CB        52.2860   48.1790    0.0040 C.3   186  ASP186      0.1424
    138  CG        51.5880   48.2810    1.3360 C.2   186  ASP186      0.3668
    139  OD1       50.5430   47.6190    1.4850 O.co2 186  ASP186     -0.2456
    140  OD2       52.0750   49.0130    2.2220 O.co2 186  ASP186     -0.2456
    141  N         50.2170   45.3770   -0.7410 N.am  187  PHE187     -0.1976
    142  CA        48.8820   45.0270   -1.2230 C.3   187  PHE187      0.1639
    143  C         47.8150   45.0620   -0.1330 C.2   187  PHE187      0.2290
    144  O         46.6760   44.6460   -0.3670 O.2   187  PHE187     -0.2864
    145  CB        48.8920   43.6270   -1.8400 C.3   187  PHE187      0.0560
    146  CG        49.9580   43.4190   -2.8680 C.ar  187  PHE187     -0.0200
    147  CD1       50.6980   42.2430   -2.8830 C.ar  187  PHE187     -0.0042
    148  CD2       50.2190   44.3860   -3.8250 C.ar  187  PHE187     -0.0042
    149  CE1       51.6780   42.0340   -3.8300 C.ar  187  PHE187     -0.0003
    150  CE2       51.2040   44.1830   -4.7820 C.ar  187  PHE187     -0.0003
    151  CZ        51.9310   43.0070   -4.7830 C.ar  187  PHE187     -0.0000
    152  N         44.1100   46.3380   -0.6520 N.3   190  ALA190     -0.1231
    153  CA        43.2720   45.4810   -1.4890 C.3   190  ALA190      0.1694
    154  C         43.1510   44.0750   -0.8860 C.2   190  ALA190      0.2591
    155  O         42.5900   43.1700   -1.5030 O.2   190  ALA190     -0.2718
    156  CB        43.8540   45.4010   -2.8950 C.3   190  ALA190      0.0304
    157  N         43.6820   43.9070    0.3220 N.am  191  ARG191     -0.1980
    158  CA        43.6540   42.6310    1.0220 C.3   191  ARG191      0.1597
    159  C         42.4340   42.5350    1.9510 C.2   191  ARG191      0.2287
    160  O         42.2410   43.3670    2.8390 O.2   191  ARG191     -0.2864
    161  CB        44.9540   42.4660    1.8210 C.3   191  ARG191      0.0334
    162  CG        45.1040   41.1550    2.5900 C.3   191  ARG191      0.0492
    163  CD        45.1180   39.9320    1.6830 C.3   191  ARG191      0.2205
    164  NE        46.3090   39.8270    0.8380 N.pl3 191  ARG191     -0.0865
    165  CZ        46.4700   38.8770   -0.0790 C.cat 191  ARG191      0.5346
    166  NH1       45.5230   37.9670   -0.2570 N.pl3 191  ARG191      0.1354
    167  NH2       47.5580   38.8410   -0.8310 N.pl3 191  ARG191      0.1354
@<TRIPOS>BOND
     1   101   100    1
     2   100    99   ar
     3   100    98   ar
     4    99    97   ar
     5    89    88    1
     6    98    96   ar
     7    88    85    1
     8    97    95   ar
     9    75    73   ar
    10    75    76   ar
    11    73    71   ar
    12    96    95   ar
    13    77    76    1
    14    85    86    1
    15    85    84    1
    16    95    94    1
    17    87    86    2
    18    76    74   ar
    19     7     6    1
    20     7     8    1
    21     1     2    1
    22    86    90   am
    23     6     5    1
    24    84    80   am
    25    71    70    1
    26    71    72   ar
    27     9     8    1
    28     5     2    1
    29    70    67    1
    30    69    68    2
    31    90    91    1
    32    74    72   ar
    33     2     3    1
    34    94    91    1
    35    65    63   ar
    36    91    92    1
    37    68    67    1
    38    68    78   am
    39    80    79    1
    40    80    81    2
    41    66    67    1
    42    66    59   am
    43    29    30    1
    44    62    63    1
    45    62    61    1
    46    63    64   ar
    47    79    78    1
    48    79    82    1
    49     3     4    2
    50    58    61    1
    51    58    59    1
    52    58    57    1
    53    92    93    2
    54    92   102   am
    55    59    60    2
    56    16    15    1
    57    53    52    2
    58    30    31    1
    59    30    33    1
    60   102   103    1
    61    57    52   am
    62    82    83    1
    63    52    51    1
    64    17    15    1
    65    31    32    2
    66    15    14    1
    67   103   104    1
    68    50    51    1
    69    51    54    1
    70    10    11    1
    71    14    11    1
    72    11    12    1
    73   105   104    2
    74   104   106   am
    75    55    54    1
    76    54    56    1
    77   127   128    2
    78   127   126    1
    79    48    47    1
    80    25    24    2
    81    24    23    1
    82    12    13    2
    83    12    18   am
    84    44    45    1
    85    44    47    1
    86    44    43    1
    87    45    46    2
    88   106   107    1
    89   129   126    1
    90   129   130    1
    91    28    26    1
    92   126   125    1
    93    47    49    1
    94    34    35    1
    95   132   130    1
    96   130   131    1
    97   109   108    2
    98    18    19    1
    99    23    26    1
   100    23    22    1
   101   108   107    1
   102   107   110    1
   103    26    27    1
   104    35    36    1
   105    35    38    1
   106    37    36    2
   107    19    20    1
   108   112   111   ar
   109   110   111    1
   110    21    20    2
   111   111   113   ar
   112    38    39    1
   113   151   150   ar
   114   151   149   ar
   115   150   148   ar
   116    39    40    1
   117   149   147   ar
   118   148   146   ar
   119    40    41    1
   120   156   153    1
   121   147   146   ar
   122   146   145    1
   123    41    42    1
   124   117   116    2
   125   136   135    2
   126   145   142    1
   127   133   134    1
   128   116   115    1
   129   155   154    2
   130   153   154    1
   131   153   152    1
   132   115   114    1
   133   115   118    1
   134   142   141    1
   135   142   143    1
   136   135   141   am
   137   135   134    1
   138   154   157   am
   139   167   165    1
   140   134   137    1
   141   144   143    2
   142   166   165    1
   143   118   119    1
   144   165   164    2
   145   137   138    1
   146   157   158    1
   147   164   163    1
   148   158   161    1
   149   158   159    1
   150   119   120    1
   151   138   139   ar
   152   138   140   ar
   153   163   162    1
   154   161   162    1
   155   159   160    2
   156   120   121    1
   157   121   122    2
   158   123   122    1
   159   122   124    1
