@<TRIPOS>MOLECULE
tmp/2i1oA02.pdb
 97 92 0 0 0
SMALL
GASTEIGER

@<TRIPOS>ATOM
      1  N         82.9890   66.2720   10.3540 N.3   134  PRO134     -0.2116
      2  CA        84.2510   66.2190   11.0920 C.3   134  PRO134      0.1372
      3  C         84.0690   66.0390   12.5890 C.2   134  PRO134      0.2244
      4  O         83.0340   66.4150   13.1480 O.2   134  PRO134     -0.2868
      5  CB        84.8870   67.5630   10.7660 C.3   134  PRO134      0.0268
      6  CG        83.6890   68.4740   10.7360 C.3   134  PRO134      0.0207
      7  CD        82.6690   67.6570    9.9550 C.3   134  PRO134      0.0892
      8  N         86.6470   65.9820   16.3920 N.3   136  PHE136     -0.1241
      9  CA        87.9680   66.3070   16.9050 C.3   136  PHE136      0.1605
     10  C         88.2750   65.6300   18.2260 C.2   136  PHE136      0.2264
     11  O         87.3780   65.3980   19.0350 O.2   136  PHE136     -0.2867
     12  CB        88.0970   67.8270   17.0680 C.3   136  PHE136      0.0534
     13  CG        87.6160   68.6030   15.8770 C.ar  136  PHE136     -0.0203
     14  CD1       86.2520   68.8270   15.6810 C.ar  136  PHE136     -0.0042
     15  CD2       88.5150   69.0420   14.9100 C.ar  136  PHE136     -0.0042
     16  CE1       85.7900   69.4690   14.5350 C.ar  136  PHE136     -0.0003
     17  CE2       88.0680   69.6840   13.7580 C.ar  136  PHE136     -0.0003
     18  CZ        86.6990   69.8970   13.5680 C.ar  136  PHE136     -0.0000
     19  N         89.2330   65.6310   21.7810 N.3   138  PHE138     -0.1241
     20  CA        89.1880   66.5960   22.8790 C.3   138  PHE138      0.1605
     21  C         89.4820   65.9930   24.2470 C.2   138  PHE138      0.2264
     22  O         89.3920   66.6960   25.2460 O.2   138  PHE138     -0.2867
     23  CB        87.7950   67.2330   22.9780 C.3   138  PHE138      0.0534
     24  CG        87.4900   68.2560   21.9190 C.ar  138  PHE138     -0.0203
     25  CD1       88.4520   68.6550   20.9960 C.ar  138  PHE138     -0.0042
     26  CD2       86.2280   68.8510   21.8740 C.ar  138  PHE138     -0.0042
     27  CE1       88.1580   69.6300   20.0390 C.ar  138  PHE138     -0.0003
     28  CE2       85.9220   69.8220   20.9230 C.ar  138  PHE138     -0.0003
     29  CZ        86.8940   70.2170   20.0050 C.ar  138  PHE138     -0.0000
     30  N         92.9840   72.8410   17.6520 N.3   177  VAL177     -0.1231
     31  CA        91.5970   73.2500   17.4760 C.3   177  VAL177      0.1696
     32  C         91.0230   73.6740   18.8250 C.2   177  VAL177      0.2632
     33  O         91.3390   73.0780   19.8580 O.2   177  VAL177     -0.2714
     34  CB        90.7520   72.0860   16.9180 C.3   177  VAL177      0.0266
     35  CG1       89.2880   72.4480   16.9540 C.3   177  VAL177      0.0020
     36  CG2       91.1920   71.7610   15.4990 C.3   177  VAL177      0.0020
     37  N         90.1780   74.6970   18.8200 N.am  178  GLY178     -0.1718
     38  CA        89.6000   75.1410   20.0710 C.2   178  GLY178      0.1480
     39  C         88.4840   76.1600   19.9750 C.2   178  GLY178      0.2821
     40  O         88.5210   77.0730   19.1520 O.2   178  GLY178     -0.2669
     41  N         87.4830   75.9900   20.8310 N.am  179  THR179     -0.1916
     42  CA        86.3480   76.8970   20.8920 C.3   179  THR179      0.1900
     43  C         86.3540   77.5810   22.2570 C.2   179  THR179      0.2313
     44  O         87.0480   77.1560   23.1770 O.2   179  THR179     -0.2863
     45  CB        85.0090   76.1480   20.7370 C.3   179  THR179      0.1794
     46  OG1       84.7280   75.4220   21.9380 O.3   179  THR179     -0.2208
     47  CG2       85.0720   75.1750   19.5760 C.3   179  THR179      0.0378
     48  N         89.4770   80.0900    9.6700 N.3   205  GLN205     -0.1231
     49  CA        88.9370   79.3150   10.7760 C.3   205  GLN205      0.1698
     50  C         87.4560   79.6820   10.8870 C.2   205  GLN205      0.2592
     51  O         87.0560   80.8030   10.5550 O.2   205  GLN205     -0.2718
     52  CB        89.6680   79.6480   12.0830 C.3   205  GLN205      0.0381
     53  CG        89.6760   81.1250   12.4510 C.3   205  GLN205      0.0905
     54  CD        90.2830   81.3910   13.8200 C.2   205  GLN205      0.2608
     55  OE1       90.4850   82.5430   14.2070 O.2   205  GLN205     -0.2717
     56  NE2       90.5700   80.3250   14.5620 N.am  205  GLN205     -0.0878
     57  N         86.6450   78.7330   11.3410 N.am  206  LYS206     -0.1980
     58  CA        85.2110   78.9590   11.4840 C.3   206  LYS206      0.1596
     59  C         84.8480   79.5080   12.8630 C.2   206  LYS206      0.2287
     60  O         85.5430   79.2510   13.8440 O.2   206  LYS206     -0.2864
     61  CB        84.4560   77.6480   11.2360 C.3   206  LYS206      0.0298
     62  CG        83.7130   77.5770    9.9090 C.3   206  LYS206      0.0038
     63  CD        84.6260   77.8220    8.7190 C.3   206  LYS206      0.0206
     64  CE        83.8740   77.6400    7.4080 C.3   206  LYS206      0.1093
     65  NZ        82.6560   78.4980    7.3390 N.3   206  LYS206     -0.1314
     66  N         82.6020   79.7070   16.2260 N.3   208  VAL208     -0.1245
     67  CA        81.8330   78.7650   17.0310 C.3   208  VAL208      0.1561
     68  C         81.4570   79.3970   18.3610 C.2   208  VAL208      0.2260
     69  O         82.3200   79.8530   19.1100 O.2   208  VAL208     -0.2867
     70  CB        82.6230   77.4580   17.3190 C.3   208  VAL208      0.0252
     71  CG1       81.7920   76.5420   18.1880 C.3   208  VAL208      0.0019
     72  CG2       82.9760   76.7550   16.0160 C.3   208  VAL208      0.0019
     73  N         79.0710   78.1660   13.4330 N.3   233  TYR233     -0.1241
     74  CA        78.5810   77.0740   14.2590 C.3   233  TYR233      0.1605
     75  C         78.0880   77.5020   15.6310 C.2   233  TYR233      0.2264
     76  O         78.4780   78.5380   16.1740 O.2   233  TYR233     -0.2867
     77  CB        79.6630   76.0110   14.4710 C.3   233  TYR233      0.0534
     78  CG        79.9660   75.1280   13.2850 C.ar  233  TYR233     -0.0201
     79  CD1       80.7220   75.5980   12.2140 C.ar  233  TYR233     -0.0009
     80  CD2       79.5390   73.8010   13.2560 C.ar  233  TYR233     -0.0009
     81  CE1       81.0500   74.7670   11.1480 C.ar  233  TYR233      0.0417
     82  CE2       79.8650   72.9590   12.1940 C.ar  233  TYR233      0.0417
     83  CZ        80.6230   73.4490   11.1450 C.ar  233  TYR233      0.1957
     84  OH        80.9700   72.6210   10.0980 O.3   233  TYR233     -0.2866
     85  N         77.1410   71.8970   16.2790 N.3   268  MET268     -0.1245
     86  CA        78.2240   71.0600   16.7730 C.3   268  MET268      0.1570
     87  C         77.8520   70.5720   18.1700 C.2   268  MET268      0.2261
     88  O         77.3070   71.3290   18.9780 O.2   268  MET268     -0.2867
     89  CB        79.5350   71.8610   16.8340 C.3   268  MET268      0.0387
     90  CG        80.6610   71.1840   17.6160 C.3   268  MET268      0.0595
     91  SD        82.2100   72.1440   17.6390 S.3   268  MET268     -0.1393
     92  CE        83.1550   71.2480   16.4530 C.3   268  MET268      0.0692
     93  N         79.1660   68.4890   13.3470 N.3   288  ALA288     -0.1245
     94  CA        80.5310   68.5670   13.8590 C.3   288  ALA288      0.1562
     95  C         80.5220   67.9690   15.2600 C.2   288  ALA288      0.2260
     96  O         79.5710   68.1710   16.0200 O.2   288  ALA288     -0.2867
     97  CB        81.0020   70.0170   13.9000 C.3   288  ALA288      0.0290
@<TRIPOS>BOND
     1    65    64    1
     2    64    63    1
     3    63    62    1
     4    48    49    1
     5    62    61    1
     6     7     1    1
     7     7     6    1
     8    84    83    1
     9     1     2    1
    10    51    50    2
    11     6     5    1
    12     5     2    1
    13    49    50    1
    14    49    52    1
    15    50    57   am
    16     2     3    1
    17    83    81   ar
    18    83    82   ar
    19    81    79   ar
    20    61    58    1
    21    57    58    1
    22    58    59    1
    23    52    53    1
    24    82    80   ar
    25    79    78   ar
    26    53    54    1
    27     3     4    2
    28    59    60    2
    29    80    78   ar
    30    78    77    1
    31    93    94    1
    32    73    74    1
    33    18    17   ar
    34    18    16   ar
    35    17    15   ar
    36    54    55    2
    37    54    56   am
    38    94    97    1
    39    94    95    1
    40    74    77    1
    41    74    75    1
    42    16    14   ar
    43    15    13   ar
    44    95    96    2
    45    36    34    1
    46    75    76    2
    47    14    13   ar
    48    13    12    1
    49    72    70    1
    50    66    67    1
    51    85    86    1
    52     8     9    1
    53    92    91    1
    54    86    89    1
    55    86    87    1
    56    89    90    1
    57     9    12    1
    58     9    10    1
    59    34    35    1
    60    34    31    1
    61    67    70    1
    62    67    68    1
    63    70    71    1
    64    31    30    1
    65    31    32    1
    66    90    91    1
    67    87    88    2
    68    10    11    2
    69    68    69    2
    70    37    32    1
    71    37    38    2
    72    32    33    2
    73    40    39    2
    74    47    45    1
    75    39    38    1
    76    39    41   am
    77    29    27   ar
    78    29    28   ar
    79    27    25   ar
    80    45    42    1
    81    45    46    1
    82    41    42    1
    83    42    43    1
    84    28    26   ar
    85    25    24   ar
    86    19    20    1
    87    26    24   ar
    88    24    23    1
    89    43    44    2
    90    20    23    1
    91    20    21    1
    92    21    22    2
