@<TRIPOS>MOLECULE
tmp/2i1oA00.pdb
 99 93 0 0 0
SMALL
GASTEIGER

@<TRIPOS>ATOM
      1  N         89.2330   65.6310   21.7810 N.3   138  PHE138     -0.1227
      2  CA        89.1880   66.5960   22.8790 C.3   138  PHE138      0.1736
      3  C         89.4820   65.9930   24.2470 C.2   138  PHE138      0.2596
      4  O         89.3920   66.6960   25.2460 O.2   138  PHE138     -0.2718
      5  CB        87.7950   67.2330   22.9780 C.3   138  PHE138      0.0547
      6  CG        87.4900   68.2560   21.9190 C.ar  138  PHE138     -0.0202
      7  CD1       88.4520   68.6550   20.9960 C.ar  138  PHE138     -0.0042
      8  CD2       86.2280   68.8510   21.8740 C.ar  138  PHE138     -0.0042
      9  CE1       88.1580   69.6300   20.0390 C.ar  138  PHE138     -0.0003
     10  CE2       85.9220   69.8220   20.9230 C.ar  138  PHE138     -0.0003
     11  CZ        86.8940   70.2170   20.0050 C.ar  138  PHE138     -0.0000
     12  N         89.8460   64.7160   24.3110 N.am  139  GLY139     -0.1957
     13  CA        90.0420   64.0990   25.6160 C.3   139  GLY139      0.1869
     14  C         91.3590   63.9630   26.3640 C.2   139  GLY139      0.2309
     15  O         91.3800   63.2390   27.3580 O.2   139  GLY139     -0.2863
     16  N         92.5980   65.6240   28.5320 N.3   141  ARG141     -0.1231
     17  CA        92.3880   66.0490   29.9140 C.3   141  ARG141      0.1694
     18  C         91.9700   64.9030   30.8420 C.2   141  ARG141      0.2591
     19  O         92.0410   65.0380   32.0700 O.2   141  ARG141     -0.2718
     20  CB        91.3070   67.1200   29.9750 C.3   141  ARG141      0.0321
     21  CG        89.9010   66.5820   29.7120 C.3   141  ARG141      0.0489
     22  CD        88.8720   67.6920   29.8060 C.3   141  ARG141      0.2205
     23  NE        89.2970   68.8470   29.0230 N.pl3 141  ARG141     -0.0865
     24  CZ        88.9240   70.1000   29.2670 C.cat 141  ARG141      0.5346
     25  NH1       88.1030   70.3710   30.2760 N.pl3 141  ARG141      0.1354
     26  NH2       89.4020   71.0880   28.5210 N.pl3 141  ARG141      0.1354
     27  N         91.5150   63.7910   30.2670 N.am  142  ARG142     -0.1980
     28  CA        91.0780   62.6560   31.0780 C.3   142  ARG142      0.1597
     29  C         92.2430   61.7300   31.4150 C.2   142  ARG142      0.2287
     30  O         92.1270   60.8510   32.2720 O.2   142  ARG142     -0.2864
     31  CB        89.9780   61.8680   30.3500 C.3   142  ARG142      0.0334
     32  CG        88.8410   61.4110   31.2610 C.3   142  ARG142      0.0492
     33  CD        88.1050   62.6060   31.8880 C.3   142  ARG142      0.2205
     34  NE        87.4420   63.4390   30.8850 N.pl3 142  ARG142     -0.0865
     35  CZ        86.9400   64.6540   31.1170 C.cat 142  ARG142      0.5346
     36  NH1       87.0210   65.1940   32.3240 N.pl3 142  ARG142      0.1354
     37  NH2       86.3590   65.3400   30.1380 N.pl3 142  ARG142      0.1354
     38  N         77.7040   75.5720   19.3130 N.3   235  ARG235     -0.1245
     39  CA        78.1280   74.3500   19.9830 C.3   235  ARG235      0.1563
     40  C         77.3490   74.0480   21.2520 C.2   235  ARG235      0.2260
     41  O         77.1840   74.9080   22.1160 O.2   235  ARG235     -0.2867
     42  CB        79.6220   74.4090   20.3120 C.3   235  ARG235      0.0307
     43  CG        80.1250   73.1890   21.0690 C.3   235  ARG235      0.0489
     44  CD        81.5890   73.3220   21.4190 C.3   235  ARG235      0.2205
     45  NE        82.0220   72.3050   22.3690 N.pl3 235  ARG235     -0.0865
     46  CZ        83.2780   72.1590   22.7790 C.cat 235  ARG235      0.5346
     47  NH1       84.2130   72.9730   22.3140 N.pl3 235  ARG235      0.1354
     48  NH2       83.6000   71.2050   23.6460 N.pl3 235  ARG235      0.1354
     49  N         77.3360   71.6560   24.4840 N.3   237  ASP237     -0.1239
     50  CA        78.0750   70.7650   25.3730 C.3   237  ASP237      0.1674
     51  C         77.1100   70.5310   26.5430 C.2   237  ASP237      0.2266
     52  O         77.5120   70.3610   27.6910 O.2   237  ASP237     -0.2867
     53  CB        79.3530   71.4750   25.8460 C.3   237  ASP237      0.1410
     54  CG        80.3220   70.5450   26.5510 C.2   237  ASP237      0.3668
     55  OD1       80.8350   69.6050   25.9060 O.co2 237  ASP237     -0.2456
     56  OD2       80.5800   70.7580   27.7540 O.co2 237  ASP237     -0.2456
     57  N         79.1240   68.0400   21.6990 N.3   270  SER270     -0.1202
     58  CA        80.2350   67.4620   22.4450 C.3   270  SER270      0.2020
     59  C         79.7580   67.0610   23.8480 C.2   270  SER270      0.2619
     60  O         78.7300   67.5510   24.3290 O.2   270  SER270     -0.2717
     61  CB        81.3860   68.4740   22.5570 C.3   270  SER270      0.2103
     62  OG        80.9880   69.6460   23.2590 O.3   270  SER270     -0.2182
     63  N         80.5070   66.1680   24.4920 N.am  271  GLY271     -0.1942
     64  CA        80.1510   65.7310   25.8280 C.3   271  GLY271      0.2014
     65  C         79.6220   64.3150   25.8670 C.2   271  GLY271      0.2639
     66  O         78.5180   64.0480   25.3900 O.2   271  GLY271     -0.2714
     67  N         80.4160   63.4080   26.4320 N.am  272  GLY272     -0.1939
     68  CA        80.0300   62.0100   26.5390 C.3   272  GLY272      0.2014
     69  C         79.6040   61.3730   25.2300 C.2   272  GLY272      0.2638
     70  O         78.6100   60.6450   25.1930 O.2   272  GLY272     -0.2714
     71  N         80.3470   61.6340   24.1570 N.am  273  LEU273     -0.1977
     72  CA        80.0110   61.0780   22.8530 C.3   273  LEU273      0.1596
     73  C         80.7310   59.7640   22.5380 C.2   273  LEU273      0.2287
     74  O         81.8740   59.5420   22.9540 O.2   273  LEU273     -0.2864
     75  CB        80.2700   62.1090   21.7440 C.3   273  LEU273      0.0297
     76  CG        79.4460   63.3980   21.8540 C.3   273  LEU273      0.0022
     77  CD1       79.7020   64.3040   20.6560 C.3   273  LEU273      0.0001
     78  CD2       77.9800   63.0510   21.9430 C.3   273  LEU273      0.0001
     79  N         82.8130   66.9430   18.9850 N.3   290  GLY290     -0.1225
     80  CA        83.9680   67.0240   19.8640 C.3   290  GLY290      0.1811
     81  C         83.9570   65.7110   20.6390 C.2   290  GLY290      0.2280
     82  O         83.0140   65.4370   21.3770 O.2   290  GLY290     -0.2866
     83  N         86.0490   63.2530   23.3030 N.3   292  GLY292     -0.1210
     84  CA        87.1650   63.1330   24.2260 C.3   292  GLY292      0.1956
     85  C         87.3700   61.8070   24.9410 C.2   292  GLY292      0.2613
     86  O         88.0290   60.8970   24.4250 O.2   292  GLY292     -0.2717
     87  N         86.7970   61.7020   26.1360 N.am  293  THR293     -0.1938
     88  CA        86.9340   60.5270   26.9880 C.3   293  THR293      0.2028
     89  C         86.8220   59.1520   26.3500 C.2   293  THR293      0.2642
     90  O         87.6640   58.2830   26.6080 O.2   293  THR293     -0.2714
     91  CB        85.9420   60.5790   28.1560 C.3   293  THR293      0.1808
     92  OG1       86.2230   61.7280   28.9670 O.3   293  THR293     -0.2208
     93  CG2       86.0620   59.3320   29.0080 C.3   293  THR293      0.0379
     94  N         85.7970   58.9370   25.5290 N.am  294  SER294     -0.1949
     95  CA        85.6180   57.6250   24.9170 C.3   294  SER294      0.1924
     96  C         86.8380   57.2120   24.0910 C.2   294  SER294      0.2314
     97  O         87.1660   56.0240   24.0040 O.2   294  SER294     -0.2863
     98  CB        84.3480   57.5900   24.0580 C.3   294  SER294      0.2116
     99  OG        84.4790   58.3570   22.8710 O.3   294  SER294     -0.2180
@<TRIPOS>BOND
     1    79    80    1
     2    38    39    1
     3    80    81    1
     4    39    42    1
     5    39    40    1
     6    11     9   ar
     7    11    10   ar
     8     9     7   ar
     9    42    43    1
    10    81    82    2
    11    77    76    1
    12    10     8   ar
    13     7     6   ar
    14    43    44    1
    15    40    41    2
    16    44    45    1
    17    57    58    1
    18    75    76    1
    19    75    72    1
    20     1     2    1
    21    76    78    1
    22     8     6   ar
    23     6     5    1
    24    47    46    1
    25    45    46    2
    26    58    61    1
    27    58    59    1
    28    73    72    1
    29    73    74    2
    30    61    62    1
    31    46    48    1
    32    72    71    1
    33    99    98    1
    34     2     5    1
    35     2     3    1
    36    83    84    1
    37    59    60    2
    38    59    63   am
    39    97    96    2
    40    98    95    1
    41    96    95    1
    42    71    69   am
    43    84    85    1
    44     3    12   am
    45     3     4    2
    46    12    13    1
    47    86    85    2
    48    49    50    1
    49    63    64    1
    50    95    94    1
    51    85    87   am
    52    70    69    2
    53    69    68    1
    54    50    53    1
    55    50    51    1
    56    66    65    2
    57    94    89   am
    58    13    14    1
    59    64    65    1
    60    53    54    1
    61    65    67   am
    62    55    54   ar
    63    87    88    1
    64    89    90    2
    65    89    88    1
    66    14    15    2
    67    67    68    1
    68    51    52    2
    69    54    56   ar
    70    88    91    1
    71    91    92    1
    72    91    93    1
    73    26    24    1
    74    16    17    1
    75    23    24    2
    76    23    22    1
    77    24    25    1
    78    21    22    1
    79    21    20    1
    80    17    20    1
    81    17    18    1
    82    37    35    1
    83    27    18   am
    84    27    28    1
    85    31    28    1
    86    31    32    1
    87    18    19    2
    88    34    35    2
    89    34    33    1
    90    28    29    1
    91    35    36    1
    92    32    33    1
    93    29    30    2
