@<TRIPOS>MOLECULE
tmp/2i1oA01.pdb
 91 87 0 0 0
SMALL
GASTEIGER

@<TRIPOS>ATOM
      1  N         89.2330   65.6310   21.7810 N.3   138  PHE138     -0.1241
      2  CA        89.1880   66.5960   22.8790 C.3   138  PHE138      0.1605
      3  C         89.4820   65.9930   24.2470 C.2   138  PHE138      0.2264
      4  O         89.3920   66.6960   25.2460 O.2   138  PHE138     -0.2867
      5  CB        87.7950   67.2330   22.9780 C.3   138  PHE138      0.0534
      6  CG        87.4900   68.2560   21.9190 C.ar  138  PHE138     -0.0203
      7  CD1       88.4520   68.6550   20.9960 C.ar  138  PHE138     -0.0042
      8  CD2       86.2280   68.8510   21.8740 C.ar  138  PHE138     -0.0042
      9  CE1       88.1580   69.6300   20.0390 C.ar  138  PHE138     -0.0003
     10  CE2       85.9220   69.8220   20.9230 C.ar  138  PHE138     -0.0003
     11  CZ        86.8940   70.2170   20.0050 C.ar  138  PHE138     -0.0000
     12  N         92.5980   65.6240   28.5320 N.3   141  ARG141     -0.1231
     13  CA        92.3880   66.0490   29.9140 C.3   141  ARG141      0.1694
     14  C         91.9700   64.9030   30.8420 C.2   141  ARG141      0.2591
     15  O         92.0410   65.0380   32.0700 O.2   141  ARG141     -0.2718
     16  CB        91.3070   67.1200   29.9750 C.3   141  ARG141      0.0321
     17  CG        89.9010   66.5820   29.7120 C.3   141  ARG141      0.0489
     18  CD        88.8720   67.6920   29.8060 C.3   141  ARG141      0.2205
     19  NE        89.2970   68.8470   29.0230 N.pl3 141  ARG141     -0.0865
     20  CZ        88.9240   70.1000   29.2670 C.cat 141  ARG141      0.5346
     21  NH1       88.1030   70.3710   30.2760 N.pl3 141  ARG141      0.1354
     22  NH2       89.4020   71.0880   28.5210 N.pl3 141  ARG141      0.1354
     23  N         91.5150   63.7910   30.2670 N.am  142  ARG142     -0.1980
     24  CA        91.0780   62.6560   31.0780 C.3   142  ARG142      0.1597
     25  C         92.2430   61.7300   31.4150 C.2   142  ARG142      0.2287
     26  O         92.1270   60.8510   32.2720 O.2   142  ARG142     -0.2864
     27  CB        89.9780   61.8680   30.3500 C.3   142  ARG142      0.0334
     28  CG        88.8410   61.4110   31.2610 C.3   142  ARG142      0.0492
     29  CD        88.1050   62.6060   31.8880 C.3   142  ARG142      0.2205
     30  NE        87.4420   63.4390   30.8850 N.pl3 142  ARG142     -0.0865
     31  CZ        86.9400   64.6540   31.1170 C.cat 142  ARG142      0.5346
     32  NH1       87.0210   65.1940   32.3240 N.pl3 142  ARG142      0.1354
     33  NH2       86.3590   65.3400   30.1380 N.pl3 142  ARG142      0.1354
     34  N         92.8570   69.0040   19.9590 N.3   164  SER164     -0.1217
     35  CA        92.9170   70.1680   20.8480 C.3   164  SER164      0.1889
     36  C         94.2500   70.3980   21.5670 C.2   164  SER164      0.2288
     37  O         94.5790   71.5340   21.9070 O.2   164  SER164     -0.2866
     38  CB        91.7980   70.0900   21.8980 C.3   164  SER164      0.2089
     39  OG        91.9830   68.9970   22.7870 O.3   164  SER164     -0.2183
     40  N         92.9840   72.8410   17.6520 N.3   177  VAL177     -0.1231
     41  CA        91.5970   73.2500   17.4760 C.3   177  VAL177      0.1696
     42  C         91.0230   73.6740   18.8250 C.2   177  VAL177      0.2632
     43  O         91.3390   73.0780   19.8580 O.2   177  VAL177     -0.2714
     44  CB        90.7520   72.0860   16.9180 C.3   177  VAL177      0.0266
     45  CG1       89.2880   72.4480   16.9540 C.3   177  VAL177      0.0020
     46  CG2       91.1920   71.7610   15.4990 C.3   177  VAL177      0.0020
     47  N         90.1780   74.6970   18.8200 N.am  178  GLY178     -0.1718
     48  CA        89.6000   75.1410   20.0710 C.2   178  GLY178      0.1480
     49  C         88.4840   76.1600   19.9750 C.2   178  GLY178      0.2821
     50  O         88.5210   77.0730   19.1520 O.2   178  GLY178     -0.2669
     51  N         87.4830   75.9900   20.8310 N.am  179  THR179     -0.1902
     52  CA        86.3480   76.8970   20.8920 C.3   179  THR179      0.2031
     53  C         86.3540   77.5810   22.2570 C.2   179  THR179      0.2642
     54  O         87.0480   77.1560   23.1770 O.2   179  THR179     -0.2714
     55  CB        85.0090   76.1480   20.7370 C.3   179  THR179      0.1808
     56  OG1       84.7280   75.4220   21.9380 O.3   179  THR179     -0.2208
     57  CG2       85.0720   75.1750   19.5760 C.3   179  THR179      0.0379
     58  N         85.5800   78.6470   22.3840 N.am  180  MET180     -0.1963
     59  CA        85.4900   79.3630   23.6410 C.3   180  MET180      0.1722
     60  C         85.0060   78.4000   24.7300 C.2   180  MET180      0.2458
     61  O         84.2160   77.4950   24.4680 O.2   180  MET180     -0.2730
     62  CB        84.5110   80.5310   23.5030 C.3   180  MET180      0.0427
     63  CG        83.1230   80.1190   23.0180 C.3   180  MET180      0.0599
     64  SD        81.8590   81.3450   23.4280 S.3   180  MET180     -0.1393
     65  CE        81.7870   81.1480   25.2320 C.3   180  MET180      0.0692
     66  N         85.4910   78.5780   25.9630 N.am  181  PRO181     -0.2727
     67  CA        85.1130   77.7330   27.0990 C.3   181  PRO181      0.1402
     68  C         83.9400   78.2880   27.8910 C.2   181  PRO181      0.2269
     69  O         83.6040   79.4630   27.7690 O.2   181  PRO181     -0.2865
     70  CB        86.3770   77.7220   27.9390 C.3   181  PRO181      0.0296
     71  CG        86.8550   79.1410   27.7770 C.3   181  PRO181      0.0237
     72  CD        86.6930   79.3720   26.2840 C.3   181  PRO181      0.0939
     73  N         77.7040   75.5720   19.3130 N.3   235  ARG235     -0.1245
     74  CA        78.1280   74.3500   19.9830 C.3   235  ARG235      0.1563
     75  C         77.3490   74.0480   21.2520 C.2   235  ARG235      0.2260
     76  O         77.1840   74.9080   22.1160 O.2   235  ARG235     -0.2867
     77  CB        79.6220   74.4090   20.3120 C.3   235  ARG235      0.0307
     78  CG        80.1250   73.1890   21.0690 C.3   235  ARG235      0.0489
     79  CD        81.5890   73.3220   21.4190 C.3   235  ARG235      0.2205
     80  NE        82.0220   72.3050   22.3690 N.pl3 235  ARG235     -0.0865
     81  CZ        83.2780   72.1590   22.7790 C.cat 235  ARG235      0.5346
     82  NH1       84.2130   72.9730   22.3140 N.pl3 235  ARG235      0.1354
     83  NH2       83.6000   71.2050   23.6460 N.pl3 235  ARG235      0.1354
     84  N         77.3360   71.6560   24.4840 N.3   237  ASP237     -0.1239
     85  CA        78.0750   70.7650   25.3730 C.3   237  ASP237      0.1674
     86  C         77.1100   70.5310   26.5430 C.2   237  ASP237      0.2266
     87  O         77.5120   70.3610   27.6910 O.2   237  ASP237     -0.2867
     88  CB        79.3530   71.4750   25.8460 C.3   237  ASP237      0.1410
     89  CG        80.3220   70.5450   26.5510 C.2   237  ASP237      0.3668
     90  OD1       80.8350   69.6050   25.9060 O.co2 237  ASP237     -0.2456
     91  OD2       80.5800   70.7580   27.7540 O.co2 237  ASP237     -0.2456
@<TRIPOS>BOND
     1    46    44    1
     2    44    45    1
     3    44    41    1
     4    41    40    1
     5    41    42    1
     6    47    42    1
     7    47    48    2
     8    42    43    2
     9    50    49    2
    10    73    74    1
    11    57    55    1
    12    34    35    1
    13    49    48    1
    14    49    51   am
    15    74    77    1
    16    74    75    1
    17    11     9   ar
    18    11    10   ar
    19     9     7   ar
    20    77    78    1
    21    55    52    1
    22    55    56    1
    23    51    52    1
    24    35    36    1
    25    35    38    1
    26    52    53    1
    27    10     8   ar
    28     7     6   ar
    29    78    79    1
    30    75    76    2
    31    79    80    1
    32    36    37    2
    33     1     2    1
    34     8     6   ar
    35    38    39    1
    36     6     5    1
    37    53    58   am
    38    53    54    2
    39    82    81    1
    40    80    81    2
    41    58    59    1
    42    81    83    1
    43     2     5    1
    44     2     3    1
    45    63    64    1
    46    63    62    1
    47    64    65    1
    48    62    59    1
    49    59    60    1
    50     3     4    2
    51    61    60    2
    52    84    85    1
    53    60    66   am
    54    85    88    1
    55    85    86    1
    56    88    89    1
    57    90    89   ar
    58    66    72    1
    59    66    67    1
    60    72    71    1
    61    86    87    2
    62    89    91   ar
    63    67    68    1
    64    67    70    1
    65    69    68    2
    66    71    70    1
    67    22    20    1
    68    12    13    1
    69    19    20    2
    70    19    18    1
    71    20    21    1
    72    17    18    1
    73    17    16    1
    74    13    16    1
    75    13    14    1
    76    33    31    1
    77    23    14   am
    78    23    24    1
    79    27    24    1
    80    27    28    1
    81    14    15    2
    82    30    31    2
    83    30    29    1
    84    24    25    1
    85    31    32    1
    86    28    29    1
    87    25    26    2
