@<TRIPOS>MOLECULE
tmp/2i1rB00.pdb
 139 133 0 0 0
SMALL
GASTEIGER

@<TRIPOS>ATOM
      1  N         -8.1610   38.0110  -26.3320 N.3   414  LEU414     -0.1245
      2  CA        -8.8960   37.5810  -27.5130 C.3   414  LEU414      0.1561
      3  C        -10.3790   37.8740  -27.3480 C.2   414  LEU414      0.2260
      4  O        -11.0260   38.4050  -28.2570 O.2   414  LEU414     -0.2867
      5  CB        -8.6850   36.0780  -27.7390 C.3   414  LEU414      0.0270
      6  CG        -9.6740   35.3470  -28.6490 C.3   414  LEU414      0.0019
      7  CD1       -9.4610   35.7600  -30.0940 C.3   414  LEU414      0.0001
      8  CD2       -9.4860   33.8400  -28.4860 C.3   414  LEU414      0.0001
      9  N        -11.3140   41.8770  -27.4480 N.3   417  ARG417     -0.1231
     10  CA       -11.2590   42.4830  -28.7740 C.3   417  ARG417      0.1694
     11  C        -12.3550   41.9380  -29.6940 C.2   417  ARG417      0.2591
     12  O        -13.1130   42.7080  -30.2820 O.2   417  ARG417     -0.2718
     13  CB        -9.8850   42.2340  -29.4140 C.3   417  ARG417      0.0321
     14  CG        -8.7000   42.8530  -28.6540 C.3   417  ARG417      0.0489
     15  CD        -7.3700   42.2490  -29.1030 C.3   417  ARG417      0.2205
     16  NE        -6.9510   42.6830  -30.4380 N.pl3 417  ARG417     -0.0865
     17  CZ        -6.0480   42.0370  -31.1740 C.cat 417  ARG417      0.5346
     18  NH1       -5.4880   40.9340  -30.7030 N.pl3 417  ARG417      0.1354
     19  NH2       -5.6910   42.4930  -32.3670 N.pl3 417  ARG417      0.1354
     20  N        -12.4440   40.6130  -29.7960 N.am  418  MET418     -0.1979
     21  CA       -13.4220   39.9470  -30.6650 C.3   418  MET418      0.1605
     22  C        -14.8880   40.1940  -30.3400 C.2   418  MET418      0.2287
     23  O        -15.6980   40.4680  -31.2350 O.2   418  MET418     -0.2864
     24  CB       -13.1690   38.4310  -30.6620 C.3   418  MET418      0.0413
     25  CG       -14.1910   37.6110  -31.4490 C.3   418  MET418      0.0598
     26  SD       -13.7390   35.8480  -31.5680 S.3   418  MET418     -0.1393
     27  CE       -14.3920   35.2110  -30.0280 C.3   418  MET418      0.0692
     28  N         -2.5370   44.1100  -32.1570 N.3   468  SER468     -0.1202
     29  CA        -2.1140   43.1100  -33.1330 C.3   468  SER468      0.2020
     30  C         -1.7200   41.7430  -32.5860 C.2   468  SER468      0.2619
     31  O         -1.0910   40.9560  -33.2910 O.2   468  SER468     -0.2717
     32  CB        -0.9670   43.6590  -33.9920 C.3   468  SER468      0.2103
     33  OG         0.1180   44.1140  -33.2010 O.3   468  SER468     -0.2182
     34  N         -2.0950   41.4410  -31.3490 N.am  469  LEU469     -0.1965
     35  CA        -1.7570   40.1470  -30.7820 C.3   469  LEU469      0.1728
     36  C         -2.4830   39.0460  -31.5460 C.2   469  LEU469      0.2616
     37  O         -3.6120   39.2340  -32.0000 O.2   469  LEU469     -0.2715
     38  CB        -2.1340   40.0840  -29.2960 C.3   469  LEU469      0.0311
     39  CG        -1.3150   40.9410  -28.3200 C.3   469  LEU469      0.0022
     40  CD1       -1.7400   40.6340  -26.8980 C.3   469  LEU469      0.0001
     41  CD2        0.1780   40.6700  -28.4990 C.3   469  LEU469      0.0001
     42  N         -1.8240   37.8970  -31.6890 N.am  470  HIS470     -0.1959
     43  CA        -2.3920   36.7460  -32.3970 C.3   470  HIS470      0.1787
     44  C         -1.7170   35.4530  -31.9130 C.2   470  HIS470      0.2621
     45  O         -0.7630   35.4890  -31.1260 O.2   470  HIS470     -0.2715
     46  CB        -2.2120   36.9190  -33.9150 C.3   470  HIS470      0.0785
     47  CG        -0.7930   36.7890  -34.3710 C.ar  470  HIS470      0.0821
     48  ND1       -0.1830   35.5650  -34.5550 N.ar  470  HIS470     -0.2267
     49  CD2        0.1550   37.7220  -34.6160 C.ar  470  HIS470      0.1154
     50  CE1        1.0790   35.7520  -34.8920 C.ar  470  HIS470      0.1986
     51  NE2        1.3120   37.0520  -34.9350 N.ar  470  HIS470     -0.2212
     52  N         -2.2140   34.3170  -32.3920 N.am  471  SER471     -0.1936
     53  CA        -1.6970   33.0080  -31.9870 C.3   471  SER471      0.2055
     54  C         -1.6780   32.9180  -30.4640 C.2   471  SER471      0.2643
     55  O         -0.6200   32.7900  -29.8470 O.2   471  SER471     -0.2714
     56  CB        -0.2840   32.7750  -32.5330 C.3   471  SER471      0.2130
     57  OG        -0.2900   32.6850  -33.9500 O.3   471  SER471     -0.2179
     58  N         -2.8600   32.9960  -29.8620 N.am  472  TYR472     -0.1973
     59  CA        -2.9730   32.9210  -28.4190 C.3   472  TYR472      0.1639
     60  C         -2.6490   31.4970  -27.9720 C.2   472  TYR472      0.2290
     61  O         -2.6030   30.5800  -28.7950 O.2   472  TYR472     -0.2864
     62  CB        -4.3830   33.3340  -27.9780 C.3   472  TYR472      0.0560
     63  CG        -4.6900   34.8150  -28.1800 C.ar  472  TYR472     -0.0198
     64  CD1       -5.2220   35.2880  -29.3740 C.ar  472  TYR472     -0.0009
     65  CD2       -4.4400   35.7380  -27.1680 C.ar  472  TYR472     -0.0009
     66  CE1       -5.5010   36.6420  -29.5490 C.ar  472  TYR472      0.0417
     67  CE2       -4.7130   37.0860  -27.3350 C.ar  472  TYR472      0.0417
     68  CZ        -5.2450   37.5330  -28.5240 C.ar  472  TYR472      0.1957
     69  OH        -5.5400   38.8740  -28.6670 O.3   472  TYR472     -0.2866
     70  N         -7.3670   29.7320  -25.6790 N.3   477  ILE477     -0.1245
     71  CA        -8.3460   29.4560  -26.7160 C.3   477  ILE477      0.1561
     72  C         -9.4180   28.4850  -26.2320 C.2   477  ILE477      0.2260
     73  O        -10.6050   28.7070  -26.4510 O.2   477  ILE477     -0.2867
     74  CB        -7.6720   28.8650  -27.9620 C.3   477  ILE477      0.0252
     75  CG1       -6.7640   29.9170  -28.6000 C.3   477  ILE477      0.0019
     76  CG2       -8.7340   28.3700  -28.9430 C.3   477  ILE477      0.0019
     77  CD1       -5.9310   29.3950  -29.7500 C.3   477  ILE477      0.0001
     78  N        -11.8640   30.1500  -23.6600 N.3   480  VAL480     -0.1231
     79  CA       -12.7910   31.0750  -24.3070 C.3   480  VAL480      0.1692
     80  C        -13.8450   30.2920  -25.0960 C.2   480  VAL480      0.2591
     81  O        -15.0360   30.5790  -25.0080 O.2   480  VAL480     -0.2718
     82  CB       -12.0510   32.0420  -25.2720 C.3   480  VAL480      0.0266
     83  CG1      -13.0570   32.9720  -25.9500 C.3   480  VAL480      0.0020
     84  CG2      -11.0230   32.8600  -24.5070 C.3   480  VAL480      0.0020
     85  N        -13.4030   29.2940  -25.8560 N.am  481  ALA481     -0.1980
     86  CA       -14.3240   28.4810  -26.6480 C.3   481  ALA481      0.1597
     87  C        -15.3450   27.7980  -25.7470 C.2   481  ALA481      0.2287
     88  O        -16.5400   27.7740  -26.0520 O.2   481  ALA481     -0.2864
     89  CB       -13.5520   27.4320  -27.4520 C.3   481  ALA481      0.0319
     90  N        -17.7840   30.3220  -24.6740 N.3   484  LEU484     -0.1245
     91  CA       -18.7070   30.6830  -25.7440 C.3   484  LEU484      0.1561
     92  C        -19.8290   29.6650  -25.9460 C.2   484  LEU484      0.2260
     93  O        -20.9600   30.0420  -26.2710 O.2   484  LEU484     -0.2867
     94  CB       -17.9500   30.9070  -27.0540 C.3   484  LEU484      0.0270
     95  CG       -16.9100   32.0230  -26.9430 C.3   484  LEU484      0.0019
     96  CD1      -16.4670   32.4660  -28.3230 C.3   484  LEU484      0.0001
     97  CD2      -17.5050   33.1850  -26.1770 C.3   484  LEU484      0.0001
     98  N        -16.2150   33.1030  -33.8920 N.3   492  LEU492     -0.1245
     99  CA       -15.3450   34.1290  -34.4690 C.3   492  LEU492      0.1561
    100  C        -15.8260   34.6190  -35.8240 C.2   492  LEU492      0.2260
    101  O        -15.8280   35.8200  -36.1020 O.2   492  LEU492     -0.2867
    102  CB       -13.9200   33.5930  -34.6290 C.3   492  LEU492      0.0270
    103  CG       -13.0040   34.4220  -35.5470 C.3   492  LEU492      0.0019
    104  CD1      -12.8580   35.8290  -34.9800 C.3   492  LEU492      0.0001
    105  CD2      -11.6390   33.7580  -35.6790 C.3   492  LEU492      0.0001
    106  N        -16.0380   38.5060  -36.6300 N.3   496  ARG496     -0.1245
    107  CA       -15.1410   39.0810  -37.6190 C.3   496  ARG496      0.1563
    108  C        -15.9690   39.8320  -38.6510 C.2   496  ARG496      0.2260
    109  O        -15.6520   40.9750  -39.0070 O.2   496  ARG496     -0.2867
    110  CB       -14.3230   37.9790  -38.2960 C.3   496  ARG496      0.0307
    111  CG       -13.3420   38.4830  -39.3370 C.3   496  ARG496      0.0489
    112  CD       -12.6610   37.3330  -40.0770 C.3   496  ARG496      0.2205
    113  NE       -11.7370   36.5680  -39.2380 N.pl3 496  ARG496     -0.0865
    114  CZ       -10.5740   37.0280  -38.7720 C.cat 496  ARG496      0.5346
    115  NH1      -10.1800   38.2640  -39.0550 N.pl3 496  ARG496      0.1354
    116  NH2       -9.7890   36.2420  -38.0390 N.pl3 496  ARG496      0.1354
    117  N         -7.7100   43.5920  -36.6250 N.3   523  TRP523     -0.1241
    118  CA        -7.6480   42.1260  -36.6450 C.3   523  TRP523      0.1605
    119  C         -8.7060   41.5100  -37.5450 C.2   523  TRP523      0.2264
    120  O         -8.5880   40.3510  -37.9640 O.2   523  TRP523     -0.2867
    121  CB        -7.8160   41.5420  -35.2330 C.3   523  TRP523      0.0550
    122  CG        -9.0810   41.9900  -34.5390 C.ar  523  TRP523      0.0003
    123  CD1       -9.2250   43.0810  -33.7140 C.ar  523  TRP523      0.0946
    124  CD2      -10.3870   41.4130  -34.6620 C.ar  523  TRP523      0.0152
    125  NE1      -10.5320   43.2150  -33.3240 N.ar  523  TRP523     -0.2442
    126  CE2      -11.2710   42.2050  -33.8910 C.ar  523  TRP523      0.0810
    127  CE3      -10.9020   40.3060  -35.3510 C.ar  523  TRP523      0.0012
    128  CZ2      -12.6330   41.9290  -33.7880 C.ar  523  TRP523      0.0191
    129  CZ3      -12.2570   40.0270  -35.2490 C.ar  523  TRP523      0.0001
    130  CH2      -13.1090   40.8390  -34.4700 C.ar  523  TRP523      0.0015
    131  N         -4.0440   43.8800  -43.1510 N.3   528  LYS528     -0.1245
    132  CA        -3.7780   44.7280  -41.9910 C.3   528  LYS528      0.1561
    133  C         -3.2020   46.0990  -42.3280 C.2   528  LYS528      0.2260
    134  O         -2.6090   46.2950  -43.3850 O.2   528  LYS528     -0.2867
    135  CB        -2.8190   44.0130  -41.0420 C.3   528  LYS528      0.0271
    136  CG        -3.1310   42.5430  -40.8620 C.3   528  LYS528      0.0035
    137  CD        -4.5530   42.3410  -40.4160 C.3   528  LYS528      0.0206
    138  CE        -4.8210   40.8730  -40.1630 C.3   528  LYS528      0.1093
    139  NZ        -6.2250   40.6490  -39.7340 N.3   528  LYS528     -0.1314
@<TRIPOS>BOND
     1   134   133    2
     2   131   132    1
     3   133   132    1
     4   132   135    1
     5   135   136    1
     6   136   137    1
     7   137   138    1
     8   138   139    1
     9   112   111    1
    10   112   113    1
    11   111   110    1
    12   113   114    2
    13   115   114    1
    14   109   108    2
    15   114   116    1
    16   108   107    1
    17   110   107    1
    18   120   119    2
    19   107   106    1
    20   119   118    1
    21   118   117    1
    22   118   121    1
    23   101   100    2
    24   100    99    1
    25   105   103    1
    26   103   104    1
    27   103   102    1
    28   127   129   ar
    29   127   124   ar
    30   129   130   ar
    31   121   122    1
    32    51    50   ar
    33    51    49   ar
    34    50    48   ar
    35   124   122   ar
    36   124   126   ar
    37   102    99    1
    38    49    47   ar
    39    48    47   ar
    40   122   123   ar
    41   130   128   ar
    42    99    98    1
    43    47    46    1
    44    32    33    1
    45    32    29    1
    46    57    56    1
    47    46    43    1
    48   126   128   ar
    49   126   125   ar
    50   123   125   ar
    51    31    30    2
    52    29    30    1
    53    29    28    1
    54    30    34   am
    55    56    53    1
    56    43    44    1
    57    43    42    1
    58    52    53    1
    59    52    44   am
    60    19    17    1
    61    37    36    2
    62    53    54    1
    63    44    45    2
    64    42    36   am
    65    26    25    1
    66    26    27    1
    67    36    35    1
    68    25    24    1
    69    34    35    1
    70    23    22    2
    71    17    18    1
    72    17    16    2
    73    35    38    1
    74    21    24    1
    75    21    22    1
    76    21    20    1
    77    54    58   am
    78    54    55    2
    79    16    15    1
    80    12    11    2
    81     7     6    1
    82    58    59    1
    83    20    11   am
    84    77    75    1
    85    11    10    1
    86    66    64   ar
    87    66    68   ar
    88    13    10    1
    89    13    14    1
    90    64    63   ar
    91    38    39    1
    92    15    14    1
    93    76    74    1
    94    61    60    2
    95    10     9    1
    96    69    68    1
    97     6     8    1
    98     6     5    1
    99    75    74    1
   100    68    67   ar
   101    41    39    1
   102    59    62    1
   103    59    60    1
   104    96    95    1
   105    39    40    1
   106     4     3    2
   107    63    62    1
   108    63    65   ar
   109    74    71    1
   110     5     2    1
   111     2     3    1
   112     2     1    1
   113    89    86    1
   114    67    65   ar
   115    94    95    1
   116    94    91    1
   117    95    97    1
   118    71    72    1
   119    71    70    1
   120    86    85    1
   121    86    87    1
   122    73    72    2
   123    93    92    2
   124    88    87    2
   125    83    82    1
   126    92    91    1
   127    85    80   am
   128    91    90    1
   129    82    84    1
   130    82    79    1
   131    80    81    2
   132    80    79    1
   133    79    78    1
