@<TRIPOS>MOLECULE
tmp/2i1xA05.pdb
 80 77 0 0 0
SMALL
GASTEIGER

@<TRIPOS>ATOM
      1  N         13.0520   49.5040  -18.4430 N.3    68  GLY68      -0.1225
      2  CA        14.1910   50.0510  -19.1750 C.3    68  GLY68       0.1811
      3  C         14.3030   49.3430  -20.5160 C.2    68  GLY68       0.2280
      4  O         15.3900   49.1340  -21.0560 O.2    68  GLY68      -0.2866
      5  N         10.3380   51.9510  -14.3730 N.3   127  TYR127     -0.1227
      6  CA        11.6510   52.1130  -13.7640 C.3   127  TYR127      0.1736
      7  C         11.6970   53.0810  -12.5900 C.2   127  TYR127      0.2596
      8  O         12.1120   52.6570  -11.5010 O.2   127  TYR127     -0.2718
      9  CB        12.6710   52.5650  -14.8270 C.3   127  TYR127      0.0548
     10  CG        14.0880   52.3470  -14.3310 C.ar  127  TYR127     -0.0200
     11  CD1       14.5060   51.0840  -13.9260 C.ar  127  TYR127     -0.0009
     12  CD2       14.9880   53.4020  -14.2650 C.ar  127  TYR127     -0.0009
     13  CE1       15.8000   50.8890  -13.4700 C.ar  127  TYR127      0.0417
     14  CE2       16.2800   53.2100  -13.8110 C.ar  127  TYR127      0.0417
     15  CZ        16.6770   51.9500  -13.4160 C.ar  127  TYR127      0.1957
     16  OH        17.9640   51.7600  -12.9680 O.3   127  TYR127     -0.2866
     17  N         11.2830   54.3360  -12.7700 N.am  128  SER128     -0.1952
     18  CA        11.3520   55.3230  -11.6910 C.3   128  SER128      0.1924
     19  C         10.5280   54.9160  -10.4830 C.2   128  SER128      0.2314
     20  O         10.9030   55.1650   -9.3380 O.2   128  SER128     -0.2863
     21  CB        10.8720   56.7100  -12.1340 C.3   128  SER128      0.2116
     22  OG        10.8710   56.8380  -13.5410 O.3   128  SER128     -0.2180
     23  N         12.1230   52.8390   -7.5340 N.3   131  PHE131     -0.1227
     24  CA        12.8520   53.5450   -6.4810 C.3   131  PHE131      0.1736
     25  C         11.9390   54.2000   -5.4690 C.2   131  PHE131      0.2595
     26  O         12.3050   54.4220   -4.3140 O.2   131  PHE131     -0.2718
     27  CB        13.7680   54.5920   -7.1470 C.3   131  PHE131      0.0547
     28  CG        14.7090   53.8730   -8.1130 C.ar  131  PHE131     -0.0202
     29  CD1       15.7650   53.1360   -7.6010 C.ar  131  PHE131     -0.0042
     30  CD2       14.5190   53.9410   -9.4740 C.ar  131  PHE131     -0.0042
     31  CE1       16.6230   52.4730   -8.4570 C.ar  131  PHE131     -0.0003
     32  CE2       15.3760   53.2790  -10.3340 C.ar  131  PHE131     -0.0003
     33  CZ        16.4280   52.5470   -9.8200 C.ar  131  PHE131     -0.0000
     34  N         10.7040   54.5030   -5.8700 N.am  132  VAL132     -0.1980
     35  CA         9.7650   55.0050   -4.8500 C.3   132  VAL132      0.1595
     36  C          9.5000   53.9320   -3.8150 C.2   132  VAL132      0.2287
     37  O          9.4880   54.1490   -2.6000 O.2   132  VAL132     -0.2864
     38  CB         8.4600   55.4640   -5.5250 C.3   132  VAL132      0.0276
     39  CG1        7.4330   55.8180   -4.4650 C.3   132  VAL132      0.0022
     40  CG2        8.7330   56.6330   -6.4660 C.3   132  VAL132      0.0022
     41  N         11.4020   51.2810   -3.2010 N.3   134  TRP134     -0.1227
     42  CA        12.6810   51.1600   -2.4910 C.3   134  TRP134      0.1737
     43  C         12.7780   52.1440   -1.3390 C.2   134  TRP134      0.2595
     44  O         13.1620   51.8020   -0.2120 O.2   134  TRP134     -0.2718
     45  CB        13.8420   51.3540   -3.4840 C.3   134  TRP134      0.0564
     46  CG        15.1800   51.2380   -2.8140 C.ar  134  TRP134      0.0003
     47  CD1       15.9180   50.1080   -2.6310 C.ar  134  TRP134      0.0946
     48  CD2       15.9440   52.3060   -2.2320 C.ar  134  TRP134      0.0152
     49  NE1       17.0890   50.3990   -1.9740 N.ar  134  TRP134     -0.2442
     50  CE2       17.1290   51.7430   -1.7170 C.ar  134  TRP134      0.0810
     51  CE3       15.7220   53.6810   -2.1060 C.ar  134  TRP134      0.0012
     52  CZ2       18.0970   52.5180   -1.0800 C.ar  134  TRP134      0.0191
     53  CZ3       16.6830   54.4530   -1.4740 C.ar  134  TRP134      0.0001
     54  CH2       17.8520   53.8640   -0.9730 C.ar  134  TRP134      0.0015
     55  N         12.4290   53.4140   -1.5610 N.am  135  ALA135     -0.1980
     56  CA        12.4870   54.4110   -0.4870 C.3   135  ALA135      0.1597
     57  C         11.5350   54.1230    0.6590 C.2   135  ALA135      0.2287
     58  O         11.8580   54.2520    1.8460 O.2   135  ALA135     -0.2864
     59  CB        12.1800   55.8020   -1.0570 C.3   135  ALA135      0.0319
     60  N         19.7750   48.3460   -4.4990 N.3   181  LEU181     -0.1245
     61  CA        19.9240   49.6090   -5.2220 C.3   181  LEU181      0.1561
     62  C         20.9820   49.4930   -6.3010 C.2   181  LEU181      0.2260
     63  O         20.7740   49.9000   -7.4500 O.2   181  LEU181     -0.2867
     64  CB        20.2660   50.7090   -4.2190 C.3   181  LEU181      0.0270
     65  CG        20.2600   52.1530   -4.7260 C.3   181  LEU181      0.0019
     66  CD1       18.8530   52.6010   -5.1020 C.3   181  LEU181      0.0001
     67  CD2       20.8530   53.0650   -3.6670 C.3   181  LEU181      0.0001
     68  N         19.5890   50.0420  -10.0270 N.3   187  ALA187     -0.1245
     69  CA        20.3630   50.7480  -11.0500 C.3   187  ALA187      0.1562
     70  C         21.1110   49.8160  -11.9830 C.2   187  ALA187      0.2260
     71  O         21.5780   50.2480  -13.0390 O.2   187  ALA187     -0.2867
     72  CB        21.3480   51.7070  -10.3910 C.3   187  ALA187      0.0290
     73  N         24.0870   48.4260  -11.5860 N.3   189  ILE189     -0.1245
     74  CA        25.4940   48.8000  -11.6010 C.3   189  ILE189      0.1561
     75  C         26.4190   47.6130  -11.3480 C.2   189  ILE189      0.2260
     76  O         27.5980   47.5810  -11.7000 O.2   189  ILE189     -0.2867
     77  CB        25.7480   49.8590  -10.5090 C.3   189  ILE189      0.0252
     78  CG1       25.0490   51.1990  -10.7550 C.3   189  ILE189      0.0019
     79  CG2       27.2350   50.0660  -10.2810 C.3   189  ILE189      0.0019
     80  CD1       24.5100   51.7830   -9.4600 C.3   189  ILE189      0.0001
@<TRIPOS>BOND
     1     4     3    2
     2     3     2    1
     3     2     1    1
     4     9    10    1
     5     9     6    1
     6     5     6    1
     7    10    12   ar
     8    10    11   ar
     9    12    14   ar
    10    11    13   ar
    11    14    15   ar
    12     6     7    1
    13    22    21    1
    14    13    15   ar
    15    15    16    1
    16    71    70    2
    17    17     7   am
    18    17    18    1
    19     7     8    2
    20    21    18    1
    21    70    69    1
    22    76    75    2
    23    18    19    1
    24    74    73    1
    25    74    75    1
    26    74    77    1
    27    69    72    1
    28    69    68    1
    29    78    77    1
    30    78    80    1
    31    77    79    1
    32    19    20    2
    33    32    33   ar
    34    32    30   ar
    35    33    31   ar
    36    30    28   ar
    37    31    29   ar
    38    28    29   ar
    39    28    27    1
    40    23    24    1
    41    63    62    2
    42    27    24    1
    43    24    25    1
    44    40    38    1
    45    62    61    1
    46    34    25   am
    47    34    35    1
    48    38    35    1
    49    38    39    1
    50    25    26    2
    51    61    60    1
    52    61    64    1
    53    66    65    1
    54    35    36    1
    55    65    64    1
    56    65    67    1
    57    36    37    2
    58    45    46    1
    59    45    42    1
    60    41    42    1
    61    46    47   ar
    62    46    48   ar
    63    47    49   ar
    64    42    43    1
    65    48    51   ar
    66    48    50   ar
    67    51    53   ar
    68    49    50   ar
    69    50    52   ar
    70    55    43   am
    71    55    56    1
    72    53    54   ar
    73    43    44    2
    74    52    54   ar
    75    59    56    1
    76    56    57    1
    77    57    58    2
