@<TRIPOS>MOLECULE
tmp/2i20A04.pdb
 80 78 0 0 0
SMALL
GASTEIGER

@<TRIPOS>ATOM
      1  N         13.4080   49.2460  -18.2750 N.3    68  GLY68      -0.1225
      2  CA        14.4890   49.7390  -19.1220 C.3    68  GLY68       0.1811
      3  C         14.4950   49.0310  -20.4670 C.2    68  GLY68       0.2280
      4  O         15.5370   48.8610  -21.1000 O.2    68  GLY68      -0.2866
      5  N         10.4350   51.9540  -14.3870 N.3   127  TYR127     -0.1227
      6  CA        11.7590   52.0610  -13.7850 C.3   127  TYR127      0.1736
      7  C         11.8460   53.0190  -12.5990 C.2   127  TYR127      0.2596
      8  O         12.3410   52.6480  -11.5230 O.2   127  TYR127     -0.2718
      9  CB        12.7660   52.4750  -14.8730 C.3   127  TYR127      0.0548
     10  CG        14.1990   52.4350  -14.3830 C.ar  127  TYR127     -0.0200
     11  CD1       14.7260   51.2700  -13.8380 C.ar  127  TYR127     -0.0009
     12  CD2       15.0150   53.5590  -14.4610 C.ar  127  TYR127     -0.0009
     13  CE1       16.0300   51.2180  -13.3850 C.ar  127  TYR127      0.0417
     14  CE2       16.3250   53.5150  -14.0110 C.ar  127  TYR127      0.0417
     15  CZ        16.8240   52.3460  -13.4760 C.ar  127  TYR127      0.1957
     16  OH        18.1240   52.3020  -13.0280 O.3   127  TYR127     -0.2866
     17  N         11.3790   54.2480  -12.7630 N.am  128  SER128     -0.1952
     18  CA        11.3760   55.3100  -11.7720 C.3   128  SER128      0.1924
     19  C         10.6680   54.9670  -10.4640 C.2   128  SER128      0.2314
     20  O         11.2000   55.2980   -9.4030 O.2   128  SER128     -0.2863
     21  CB        10.6780   56.5620  -12.3390 C.3   128  SER128      0.2116
     22  OG        11.6150   57.4270  -12.9470 O.3   128  SER128     -0.2180
     23  N         12.3650   52.7170   -7.5150 N.3   131  PHE131     -0.1227
     24  CA        13.0770   53.4330   -6.4640 C.3   131  PHE131      0.1736
     25  C         12.1580   54.1620   -5.5070 C.2   131  PHE131      0.2595
     26  O         12.5000   54.3590   -4.3370 O.2   131  PHE131     -0.2718
     27  CB        14.0530   54.4360   -7.0910 C.3   131  PHE131      0.0547
     28  CG        15.0180   53.7370   -8.0460 C.ar  131  PHE131     -0.0202
     29  CD1       16.2410   53.2810   -7.5850 C.ar  131  PHE131     -0.0042
     30  CD2       14.6670   53.5580   -9.3730 C.ar  131  PHE131     -0.0042
     31  CE1       17.1310   52.6550   -8.4340 C.ar  131  PHE131     -0.0003
     32  CE2       15.5590   52.9300  -10.2250 C.ar  131  PHE131     -0.0003
     33  CZ        16.7750   52.4700   -9.7540 C.ar  131  PHE131     -0.0000
     34  N         10.9690   54.5610   -5.9470 N.am  132  VAL132     -0.1980
     35  CA        10.0110   55.0570   -4.9600 C.3   132  VAL132      0.1595
     36  C          9.6760   53.9810   -3.9310 C.2   132  VAL132      0.2287
     37  O          9.6330   54.2790   -2.7360 O.2   132  VAL132     -0.2864
     38  CB         8.6820   55.4990   -5.5960 C.3   132  VAL132      0.0276
     39  CG1        7.7820   56.0490   -4.5000 C.3   132  VAL132      0.0022
     40  CG2        8.9350   56.4940   -6.7140 C.3   132  VAL132      0.0022
     41  N         11.5100   51.3980   -3.2250 N.3   134  TRP134     -0.1227
     42  CA        12.7540   51.2840   -2.4740 C.3   134  TRP134      0.1737
     43  C         12.8120   52.2100   -1.2680 C.2   134  TRP134      0.2595
     44  O         13.1690   51.7990   -0.1580 O.2   134  TRP134     -0.2718
     45  CB        13.9460   51.6020   -3.3880 C.3   134  TRP134      0.0564
     46  CG        15.2580   51.5110   -2.6600 C.ar  134  TRP134      0.0003
     47  CD1       16.0180   50.3940   -2.4580 C.ar  134  TRP134      0.0946
     48  CD2       15.9690   52.5890   -2.0370 C.ar  134  TRP134      0.0152
     49  NE1       17.1510   50.7110   -1.7460 N.ar  134  TRP134     -0.2442
     50  CE2       17.1420   52.0560   -1.4750 C.ar  134  TRP134      0.0810
     51  CE3       15.6730   53.9490   -1.9230 C.ar  134  TRP134      0.0012
     52  CZ2       18.0470   52.8700   -0.7920 C.ar  134  TRP134      0.0191
     53  CZ3       16.5760   54.7490   -1.2440 C.ar  134  TRP134      0.0001
     54  CH2       17.7430   54.2030   -0.6910 C.ar  134  TRP134      0.0015
     55  N         12.5380   53.4960   -1.4910 N.am  135  ALA135     -0.1966
     56  CA        12.6820   54.4710   -0.4110 C.3   135  ALA135      0.1728
     57  C         11.7190   54.1880    0.7330 C.2   135  ALA135      0.2616
     58  O         12.0910   54.3380    1.8970 O.2   135  ALA135     -0.2715
     59  CB        12.4970   55.8930   -0.9150 C.3   135  ALA135      0.0334
     60  N         10.4880   53.7790    0.4250 N.am  136  ILE136     -0.1977
     61  CA         9.5330   53.4680    1.4880 C.3   136  ILE136      0.1596
     62  C          9.9740   52.2500    2.2900 C.2   136  ILE136      0.2287
     63  O          9.9260   52.1660    3.5250 O.2   136  ILE136     -0.2864
     64  CB         8.1240   53.2330    0.9170 C.3   136  ILE136      0.0276
     65  CG1        7.4480   54.5030    0.3880 C.3   136  ILE136      0.0022
     66  CG2        7.2560   52.5520    1.9660 C.3   136  ILE136      0.0022
     67  CD1        6.7660   54.3030   -0.9450 C.3   136  ILE136      0.0001
     68  N         19.9950   48.4070   -4.3550 N.3   181  LEU181     -0.1245
     69  CA        20.1850   49.6340   -5.1130 C.3   181  LEU181      0.1561
     70  C         21.2720   49.4890   -6.1600 C.2   181  LEU181      0.2260
     71  O         21.1360   49.9160   -7.3090 O.2   181  LEU181     -0.2867
     72  CB        20.5260   50.7800   -4.1530 C.3   181  LEU181      0.0270
     73  CG        20.3690   52.1750   -4.7800 C.3   181  LEU181      0.0019
     74  CD1       18.9420   52.3440   -5.2750 C.3   181  LEU181      0.0001
     75  CD2       20.7740   53.2490   -3.7870 C.3   181  LEU181      0.0001
     76  N         19.7650   50.2670   -9.9930 N.3   187  ALA187     -0.1245
     77  CA        20.4780   51.0370  -11.0120 C.3   187  ALA187      0.1562
     78  C         21.3180   50.1800  -11.9440 C.2   187  ALA187      0.2260
     79  O         21.8240   50.6620  -12.9550 O.2   187  ALA187     -0.2867
     80  CB        21.3780   52.0670  -10.3370 C.3   187  ALA187      0.0290
@<TRIPOS>BOND
     1     4     3    2
     2     3     2    1
     3     2     1    1
     4     9    10    1
     5     9     6    1
     6    12    10   ar
     7    12    14   ar
     8     5     6    1
     9    10    11   ar
    10    14    15   ar
    11    11    13   ar
    12     6     7    1
    13    15    13   ar
    14    15    16    1
    15    79    78    2
    16    22    21    1
    17    17     7   am
    18    17    18    1
    19     7     8    2
    20    21    18    1
    21    78    77    1
    22    18    19    1
    23    77    80    1
    24    77    76    1
    25    19    20    2
    26    32    33   ar
    27    32    30   ar
    28    33    31   ar
    29    30    28   ar
    30    31    29   ar
    31    28    29   ar
    32    28    27    1
    33    23    24    1
    34    71    70    2
    35    27    24    1
    36    40    38    1
    37    24    25    1
    38    70    69    1
    39    34    25   am
    40    34    35    1
    41    38    35    1
    42    38    39    1
    43    25    26    2
    44    74    73    1
    45    69    68    1
    46    69    72    1
    47    35    36    1
    48    73    72    1
    49    73    75    1
    50    36    37    2
    51    45    46    1
    52    45    42    1
    53    41    42    1
    54    46    47   ar
    55    46    48   ar
    56    42    43    1
    57    47    49   ar
    58    48    51   ar
    59    48    50   ar
    60    51    53   ar
    61    49    50   ar
    62    55    43   am
    63    55    56    1
    64    50    52   ar
    65    43    44    2
    66    53    54   ar
    67    67    65    1
    68    59    56    1
    69    52    54   ar
    70    56    57    1
    71    65    64    1
    72    60    57   am
    73    60    61    1
    74    57    58    2
    75    64    61    1
    76    64    66    1
    77    61    62    1
    78    62    63    2
