@<TRIPOS>MOLECULE
tmp/2i21A04.pdb
 80 77 0 0 0
SMALL
GASTEIGER

@<TRIPOS>ATOM
      1  N         12.9930   49.5440  -18.4200 N.3    68  GLY68      -0.1225
      2  CA        14.1220   50.0310  -19.2080 C.3    68  GLY68       0.1811
      3  C         14.1500   49.3110  -20.5470 C.2    68  GLY68       0.2280
      4  O         15.2010   49.0800  -21.1430 O.2    68  GLY68      -0.2866
      5  N         10.2560   52.0860  -14.4200 N.3   127  TYR127     -0.1227
      6  CA        11.5720   52.1960  -13.8050 C.3   127  TYR127      0.1736
      7  C         11.6480   53.1960  -12.6580 C.2   127  TYR127      0.2596
      8  O         12.1380   52.8110  -11.5940 O.2   127  TYR127     -0.2718
      9  CB        12.6060   52.5960  -14.8660 C.3   127  TYR127      0.0548
     10  CG        14.0330   52.4330  -14.3990 C.ar  127  TYR127     -0.0200
     11  CD1       14.5460   51.1890  -14.0550 C.ar  127  TYR127     -0.0009
     12  CD2       14.8630   53.5480  -14.3160 C.ar  127  TYR127     -0.0009
     13  CE1       15.8610   51.0620  -13.6310 C.ar  127  TYR127      0.0417
     14  CE2       16.1730   53.4280  -13.8960 C.ar  127  TYR127      0.0417
     15  CZ        16.6590   52.1830  -13.5580 C.ar  127  TYR127      0.1957
     16  OH        17.9620   52.0760  -13.1430 O.3   127  TYR127     -0.2866
     17  N         11.1880   54.4280  -12.8630 N.am  128  SER128     -0.1952
     18  CA        11.2180   55.4740  -11.8560 C.3   128  SER128      0.1924
     19  C         10.4940   55.0730  -10.5710 C.2   128  SER128      0.2314
     20  O         10.9700   55.2980   -9.4650 O.2   128  SER128     -0.2863
     21  CB        10.5380   56.7520  -12.3750 C.3   128  SER128      0.2116
     22  OG        11.1800   57.1950  -13.5540 O.3   128  SER128     -0.2180
     23  N         12.0820   52.9680   -7.5330 N.3   131  PHE131     -0.1227
     24  CA        12.8500   53.6280   -6.4850 C.3   131  PHE131      0.1736
     25  C         11.9420   54.2970   -5.4740 C.2   131  PHE131      0.2595
     26  O         12.3190   54.5060   -4.3220 O.2   131  PHE131     -0.2718
     27  CB        13.8270   54.6400   -7.1150 C.3   131  PHE131      0.0547
     28  CG        14.7550   53.8920   -8.0770 C.ar  131  PHE131     -0.0202
     29  CD1       15.8100   53.1510   -7.5690 C.ar  131  PHE131     -0.0042
     30  CD2       14.5520   53.9380   -9.4450 C.ar  131  PHE131     -0.0042
     31  CE1       16.6480   52.4540   -8.4300 C.ar  131  PHE131     -0.0003
     32  CE2       15.3810   53.2330  -10.3070 C.ar  131  PHE131     -0.0003
     33  CZ        16.4290   52.4790   -9.7950 C.ar  131  PHE131     -0.0000
     34  N         10.7180   54.6330   -5.8780 N.am  132  VAL132     -0.1980
     35  CA         9.7820   55.1420   -4.8730 C.3   132  VAL132      0.1595
     36  C          9.4940   54.0470   -3.8510 C.2   132  VAL132      0.2287
     37  O          9.4870   54.3220   -2.6520 O.2   132  VAL132     -0.2864
     38  CB         8.4790   55.6300   -5.5200 C.3   132  VAL132      0.0276
     39  CG1        7.4060   55.8640   -4.4670 C.3   132  VAL132      0.0022
     40  CG2        8.7250   56.9030   -6.3310 C.3   132  VAL132      0.0022
     41  N         11.4430   51.4350   -3.1550 N.3   134  TRP134     -0.1227
     42  CA        12.7100   51.2940   -2.4350 C.3   134  TRP134      0.1737
     43  C         12.8130   52.2850   -1.2780 C.2   134  TRP134      0.2595
     44  O         13.2370   51.9280   -0.1770 O.2   134  TRP134     -0.2718
     45  CB        13.8910   51.4920   -3.3940 C.3   134  TRP134      0.0564
     46  CG        15.2270   51.3720   -2.7200 C.ar  134  TRP134      0.0003
     47  CD1       15.9580   50.2480   -2.4930 C.ar  134  TRP134      0.0946
     48  CD2       15.9950   52.4520   -2.1790 C.ar  134  TRP134      0.0152
     49  NE1       17.1330   50.5490   -1.8460 N.ar  134  TRP134     -0.2442
     50  CE2       17.1760   51.9020   -1.6430 C.ar  134  TRP134      0.0810
     51  CE3       15.7830   53.8310   -2.1080 C.ar  134  TRP134      0.0012
     52  CZ2       18.1530   52.6900   -1.0340 C.ar  134  TRP134      0.0191
     53  CZ3       16.7530   54.6090   -1.5020 C.ar  134  TRP134      0.0001
     54  CH2       17.9170   54.0380   -0.9770 C.ar  134  TRP134      0.0015
     55  N         12.4260   53.5440   -1.5060 N.am  135  ALA135     -0.1980
     56  CA        12.4690   54.5850   -0.4890 C.3   135  ALA135      0.1597
     57  C         11.5000   54.3270    0.6600 C.2   135  ALA135      0.2287
     58  O         11.8550   54.4960    1.8300 O.2   135  ALA135     -0.2864
     59  CB        12.1090   55.9540   -1.0720 C.3   135  ALA135      0.0319
     60  N         19.7280   48.4510   -4.5220 N.3   181  LEU181     -0.1245
     61  CA        19.8120   49.7080   -5.2600 C.3   181  LEU181      0.1561
     62  C         20.8150   49.6320   -6.4000 C.2   181  LEU181      0.2260
     63  O         20.5530   50.1440   -7.4880 O.2   181  LEU181     -0.2867
     64  CB        20.2030   50.8360   -4.2970 C.3   181  LEU181      0.0270
     65  CG        20.0970   52.2630   -4.8430 C.3   181  LEU181      0.0019
     66  CD1       18.6500   52.6290   -5.1400 C.3   181  LEU181      0.0001
     67  CD2       20.7040   53.2520   -3.8670 C.3   181  LEU181      0.0001
     68  N         19.5790   50.0620  -10.0180 N.3   187  ALA187     -0.1245
     69  CA        20.3170   50.7790  -11.0510 C.3   187  ALA187      0.1562
     70  C         21.0780   49.8410  -11.9690 C.2   187  ALA187      0.2260
     71  O         21.5110   50.2670  -13.0360 O.2   187  ALA187     -0.2867
     72  CB        21.3150   51.7660  -10.4540 C.3   187  ALA187      0.0290
     73  N         24.0760   48.5690  -11.7130 N.3   189  ILE189     -0.1245
     74  CA        25.5020   48.8730  -11.7870 C.3   189  ILE189      0.1561
     75  C         26.3530   47.6410  -11.4860 C.2   189  ILE189      0.2260
     76  O         27.5070   47.4900  -11.8870 O.2   189  ILE189     -0.2867
     77  CB        25.8680   50.0020  -10.8020 C.3   189  ILE189      0.0252
     78  CG1       24.9990   51.2550  -10.9040 C.3   189  ILE189      0.0019
     79  CG2       27.3360   50.3730  -10.9540 C.3   189  ILE189      0.0019
     80  CD1       24.5590   51.8020   -9.5600 C.3   189  ILE189      0.0001
@<TRIPOS>BOND
     1     4     3    2
     2     3     2    1
     3     2     1    1
     4     9    10    1
     5     9     6    1
     6     5     6    1
     7    10    12   ar
     8    10    11   ar
     9    12    14   ar
    10    11    13   ar
    11    14    15   ar
    12     6     7    1
    13    13    15   ar
    14    15    16    1
    15    22    21    1
    16    71    70    2
    17    17     7   am
    18    17    18    1
    19     7     8    2
    20    21    18    1
    21    70    69    1
    22    76    75    2
    23    18    19    1
    24    74    73    1
    25    74    75    1
    26    74    77    1
    27    69    72    1
    28    69    68    1
    29    79    77    1
    30    78    77    1
    31    78    80    1
    32    19    20    2
    33    32    33   ar
    34    32    30   ar
    35    33    31   ar
    36    30    28   ar
    37    31    29   ar
    38    28    29   ar
    39    28    27    1
    40    23    24    1
    41    63    62    2
    42    27    24    1
    43    24    25    1
    44    62    61    1
    45    40    38    1
    46    34    25   am
    47    34    35    1
    48    38    35    1
    49    38    39    1
    50    25    26    2
    51    61    60    1
    52    61    64    1
    53    66    65    1
    54    35    36    1
    55    65    64    1
    56    65    67    1
    57    36    37    2
    58    45    46    1
    59    45    42    1
    60    41    42    1
    61    46    47   ar
    62    46    48   ar
    63    47    49   ar
    64    42    43    1
    65    48    51   ar
    66    48    50   ar
    67    51    53   ar
    68    49    50   ar
    69    50    52   ar
    70    55    43   am
    71    55    56    1
    72    53    54   ar
    73    43    44    2
    74    59    56    1
    75    52    54   ar
    76    56    57    1
    77    57    58    2
