@<TRIPOS>MOLECULE
tmp/2i22B00.pdb
 69 64 0 0 0
SMALL
GASTEIGER

@<TRIPOS>ATOM
      1  N         30.6900  -10.9160   19.5670 N.3    52  ASN52      -0.1225
      2  CA        29.3240  -11.4940   19.6650 C.3    52  ASN52       0.1785
      3  C         28.6200  -11.1720   20.9950 C.2    52  ASN52       0.2598
      4  O         29.2480  -10.9430   22.0460 O.2    52  ASN52      -0.2718
      5  CB        29.3110  -13.0480   19.3140 C.3    52  ASN52       0.1169
      6  CG        29.7910  -13.3370   17.8960 C.2    52  ASN52       0.2627
      7  OD1       29.1600  -12.9110   16.9240 O.2    52  ASN52      -0.2716
      8  ND2       30.9030  -14.0200   17.7600 N.am   52  ASN52      -0.0877
      9  N         27.3130  -11.2240   20.9680 N.am   53  GLY53      -0.1942
     10  CA        26.4670  -10.9030   22.1180 C.3    53  GLY53       0.2014
     11  C         27.0720   -9.7800   22.9010 C.2    53  GLY53       0.2639
     12  O         27.3120   -8.6810   22.3700 O.2    53  GLY53      -0.2714
     13  N         27.4460  -10.0330   24.1440 N.am   54  GLY54      -0.1939
     14  CA        27.7440   -8.8940   24.9700 C.3    54  GLY54       0.2014
     15  C         29.0590   -8.3080   24.5610 C.2    54  GLY54       0.2639
     16  O         29.5060   -7.2560   25.1250 O.2    54  GLY54      -0.2714
     17  N         29.7200   -8.9960   23.6380 N.am   55  SER55      -0.1949
     18  CA        31.0170   -8.5060   23.2880 C.3    55  SER55       0.1924
     19  C         30.8390   -7.5650   22.1970 C.2    55  SER55       0.2314
     20  O         31.7850   -6.8310   21.8950 O.2    55  SER55      -0.2863
     21  CB        32.0280   -9.6120   22.9820 C.3    55  SER55       0.2116
     22  OG        32.3050  -10.2810   24.1860 O.3    55  SER55      -0.2180
     23  N         36.1090  -12.2870   21.2850 N.3   105  SER105     -0.1202
     24  CA        35.4790  -13.5040   21.5990 C.3   105  SER105      0.2020
     25  C         35.9610  -13.9920   22.9210 C.2   105  SER105      0.2619
     26  O         37.1540  -14.3910   23.0510 O.2   105  SER105     -0.2717
     27  CB        36.0630  -14.5610   20.6130 C.3   105  SER105      0.2103
     28  OG        35.1300  -15.6950   20.6060 O.3   105  SER105     -0.2182
     29  N         35.0690  -14.0860   23.8640 N.am  106  THR106     -0.1938
     30  CA        35.4240  -14.6040   25.1950 C.3   106  THR106      0.2028
     31  C         35.8280  -16.0190   25.1810 C.2   106  THR106      0.2642
     32  O         36.6620  -16.4090   26.0330 O.2   106  THR106     -0.2714
     33  CB        34.3050  -14.6270   26.2050 C.3   106  THR106      0.1808
     34  OG1       33.2070  -15.3160   25.6070 O.3   106  THR106     -0.2208
     35  CG2       33.8850  -13.2120   26.5960 C.3   106  THR106      0.0379
     36  N         35.3200  -16.8210   24.2680 N.am  107  SER107     -0.1949
     37  CA        35.7360  -18.2690   24.1700 C.3   107  SER107      0.1924
     38  C         36.8640  -18.5110   23.2200 C.2   107  SER107      0.2314
     39  O         37.6960  -19.3350   23.4810 O.2   107  SER107     -0.2863
     40  CB        34.6430  -19.1450   23.7170 C.3   107  SER107      0.2116
     41  OG        34.4460  -18.8630   22.3170 O.3   107  SER107     -0.2180
     42  N         34.3840  -18.3080   18.4050 N.3   110  SER110     -0.1217
     43  CA        33.5240  -17.5690   17.4310 C.3   110  SER110      0.1889
     44  C         33.9000  -17.7870   15.9890 C.2   110  SER110      0.2288
     45  O         34.9510  -17.2790   15.4940 O.2   110  SER110     -0.2866
     46  CB        33.6440  -16.0980   17.7530 C.3   110  SER110      0.2089
     47  OG        32.7990  -15.9070   18.9450 O.3   110  SER110     -0.2183
     48  N         31.0120  -16.6280   30.2470 N.3   154  ALA154     -0.1231
     49  CA        31.6700  -15.4640   29.5810 C.3   154  ALA154      0.1694
     50  C         31.7120  -14.1260   30.4080 C.2   154  ALA154      0.2592
     51  O         32.7100  -13.3710   30.3310 O.2   154  ALA154     -0.2718
     52  CB        31.0180  -15.2390   28.2160 C.3   154  ALA154      0.0304
     53  N         30.6530  -13.9150   31.1920 N.am  155  ASP155     -0.1974
     54  CA        30.6050  -12.9360   32.2670 C.3   155  ASP155      0.1709
     55  C         31.9110  -12.4480   32.7150 C.2   155  ASP155      0.2293
     56  O         32.2550  -11.3440   32.4850 O.2   155  ASP155     -0.2864
     57  CB        29.8660  -13.4380   33.4690 C.3   155  ASP155      0.1436
     58  CG        28.3540  -13.5770   33.2010 C.2   155  ASP155      0.3671
     59  OD1       27.9620  -13.2380   32.0380 O.co2 155  ASP155     -0.2456
     60  OD2       27.5390  -14.0060   34.1000 O.co2 155  ASP155     -0.2456
     61  N         34.1580  -10.9360   29.8500 N.3   158  GLN158     -0.1245
     62  CA        33.5880   -9.6740   29.2850 C.3   158  GLN158      0.1566
     63  C         33.9880   -8.5260   30.2070 C.2   158  GLN158      0.2260
     64  O         34.7000   -7.6030   29.7530 O.2   158  GLN158     -0.2867
     65  CB        32.0130   -9.7420   29.0300 C.3   158  GLN158      0.0367
     66  CG        31.3760   -8.4760   28.3050 C.3   158  GLN158      0.0905
     67  CD        31.1310   -7.2730   29.2070 C.2   158  GLN158      0.2608
     68  OE1       30.1180   -7.1270   29.7580 O.2   158  GLN158     -0.2717
     69  NE2       32.0710   -6.3700   29.2710 N.am  158  GLN158     -0.0878
@<TRIPOS>BOND
     1    45    44    2
     2    44    43    1
     3     7     6    2
     4    43    46    1
     5    43    42    1
     6    46    47    1
     7     8     6   am
     8     6     5    1
     9     5     2    1
    10     1     2    1
    11     2     3    1
    12    28    27    1
    13    27    24    1
    14     9     3   am
    15     9    10    1
    16     3     4    2
    17    23    24    1
    18    24    25    1
    19    20    19    2
    20    10    11    1
    21    19    18    1
    22    41    40    1
    23    12    11    2
    24    11    13   am
    25    25    26    2
    26    25    29   am
    27    21    18    1
    28    21    22    1
    29    38    39    2
    30    38    37    1
    31    18    17    1
    32    17    15   am
    33    40    37    1
    34    29    30    1
    35    13    14    1
    36    37    36    1
    37    36    31   am
    38    15    14    1
    39    15    16    2
    40    31    30    1
    41    31    32    2
    42    30    33    1
    43    34    33    1
    44    33    35    1
    45    52    49    1
    46    66    65    1
    47    66    67    1
    48    65    62    1
    49    67    69   am
    50    67    68    2
    51    62    61    1
    52    62    63    1
    53    49    48    1
    54    49    50    1
    55    64    63    2
    56    51    50    2
    57    50    53   am
    58    53    54    1
    59    59    58   ar
    60    54    55    1
    61    54    57    1
    62    56    55    2
    63    58    57    1
    64    58    60   ar
