@<TRIPOS>MOLECULE
tmp/2i2bA00.pdb
 79 74 0 0 0
SMALL
GASTEIGER

@<TRIPOS>ATOM
      1  N         14.9390   12.7150   16.1160 N.3    46  GLY46      -0.1225
      2  CA        13.6010   12.5130   15.5440 C.3    46  GLY46       0.1811
      3  C         12.5850   13.5580   15.9870 C.2    46  GLY46       0.2280
      4  O         11.8210   14.0770   15.1730 O.2    46  GLY46      -0.2866
      5  N         13.3830   16.8710   14.3680 N.3    49  LEU49      -0.1245
      6  CA        12.8970   16.8540   12.9840 C.3    49  LEU49       0.1561
      7  C         11.4180   17.2370   12.9040 C.2    49  LEU49       0.2260
      8  O         11.0280   17.9950   12.0160 O.2    49  LEU49      -0.2867
      9  CB        13.1350   15.4750   12.3510 C.3    49  LEU49       0.0270
     10  CG        14.2230   15.1810   11.2920 C.3    49  LEU49       0.0019
     11  CD1       15.3580   16.1840   11.2040 C.3    49  LEU49       0.0001
     12  CD2       14.7930   13.7880   11.4970 C.3    49  LEU49       0.0001
     13  N         17.4180   16.9760    6.9340 N.3   118  ASN118     -0.1225
     14  CA        18.3170   15.8300    6.7540 C.3   118  ASN118      0.1785
     15  C         18.5050   15.4740    5.2770 C.2   118  ASN118      0.2597
     16  O         19.6110   15.5100    4.7610 O.2   118  ASN118     -0.2718
     17  CB        17.7830   14.5770    7.4610 C.3   118  ASN118      0.1169
     18  CG        18.2620   14.4230    8.8990 C.2   118  ASN118      0.2627
     19  OD1       19.1440   15.1370    9.3780 O.2   118  ASN118     -0.2716
     20  ND2       17.6580   13.4660    9.6010 N.am  118  ASN118     -0.0877
     21  N         17.4150   15.0810    4.6210 N.am  119  GLU119     -0.1979
     22  CA        17.4690   14.5500    3.2640 C.3   119  GLU119      0.1602
     23  C         16.0770   14.3660    2.6580 C.2   119  GLU119      0.2287
     24  O         15.0590   14.3780    3.3580 O.2   119  GLU119     -0.2864
     25  CB        18.2460   13.2130    3.2220 C.3   119  GLU119      0.0415
     26  CG        17.4630   11.9750    3.6570 C.3   119  GLU119      0.1163
     27  CD        17.2720   11.8870    5.1520 C.2   119  GLU119      0.3649
     28  OE1       16.1020   11.7910    5.5900 O.co2 119  GLU119     -0.2457
     29  OE2       18.2870   11.9080    5.8870 O.co2 119  GLU119     -0.2457
     30  N         12.0520    6.5370   -3.8830 N.3   123  LYS123     -0.1245
     31  CA        11.9830    5.0880   -4.1060 C.3   123  LYS123      0.1561
     32  C         10.6700    4.7050   -4.8300 C.2   123  LYS123      0.2260
     33  O          9.8090    5.5610   -5.0620 O.2   123  LYS123     -0.2867
     34  CB        12.0500    4.3330   -2.7710 C.3   123  LYS123      0.0271
     35  CG        13.2500    4.6420   -1.8810 C.3   123  LYS123      0.0035
     36  CD        12.9070    4.3500   -0.4260 C.3   123  LYS123      0.0206
     37  CE        14.1550    4.2200    0.4260 C.3   123  LYS123      0.1093
     38  NZ        13.8530    4.0570    1.8770 N.3   123  LYS123     -0.1314
     39  N         23.2390   10.8990    8.8430 N.3   158  ALA158     -0.1231
     40  CA        22.0490   10.0440    8.9530 C.3   158  ALA158      0.1694
     41  C         22.0140    9.0250    7.8070 C.2   158  ALA158      0.2592
     42  O         22.9700    8.2910    7.6180 O.2   158  ALA158     -0.2718
     43  CB        20.8000   10.8790    8.9640 C.3   158  ALA158      0.0304
     44  N         20.9120    8.9910    7.0550 N.am  159  TYR159     -0.1976
     45  CA        20.7140    8.0470    5.9410 C.3   159  TYR159      0.1639
     46  C         21.9040    8.0170    4.9610 C.2   159  TYR159      0.2290
     47  O         22.3850    6.9610    4.5750 O.2   159  TYR159     -0.2864
     48  CB        19.4350    8.4350    5.2020 C.3   159  TYR159      0.0560
     49  CG        18.6970    7.3180    4.5130 C.ar  159  TYR159     -0.0198
     50  CD1       19.3190    6.0980    4.2190 C.ar  159  TYR159     -0.0009
     51  CD2       17.3670    7.4860    4.1340 C.ar  159  TYR159     -0.0009
     52  CE1       18.6330    5.0710    3.5830 C.ar  159  TYR159      0.0417
     53  CE2       16.6600    6.4570    3.5010 C.ar  159  TYR159      0.0417
     54  CZ        17.3090    5.2570    3.2150 C.ar  159  TYR159      0.1957
     55  OH        16.6180    4.2490    2.5800 O.3   159  TYR159     -0.2866
     56  N         24.7180    5.7940    6.0770 N.3   162  SER162     -0.1217
     57  CA        24.4030    4.3660    5.9230 C.3   162  SER162      0.1889
     58  C         24.5300    3.9140    4.4650 C.2   162  SER162      0.2288
     59  O         24.8280    2.7650    4.1880 O.2   162  SER162     -0.2866
     60  CB        22.9920    4.0580    6.4190 C.3   162  SER162      0.2089
     61  OG        22.8640    4.3680    7.7720 O.3   162  SER162     -0.2183
     62  N         12.7970   14.0040    5.1230 N.3   217  ASP217     -0.1225
     63  CA        13.1150   13.6600    6.5060 C.3   217  ASP217      0.1805
     64  C         12.2750   12.4500    6.9590 C.2   217  ASP217      0.2597
     65  O         12.3430   11.3860    6.3370 O.2   217  ASP217     -0.2718
     66  CB        12.9730   14.8970    7.4220 C.3   217  ASP217      0.1424
     67  CG        13.9130   16.0410    7.0140 C.2   217  ASP217      0.3668
     68  OD1       15.0300   15.7630    6.5450 O.co2 217  ASP217     -0.2456
     69  OD2       13.6350   17.2490    7.1170 O.co2 217  ASP217     -0.2456
     70  N         11.4620   12.6110    8.0000 N.am  218  HIS218     -0.1975
     71  CA        10.6550   11.4980    8.5290 C.3   218  HIS218      0.1656
     72  C          9.2940   11.3230    7.8400 C.2   218  HIS218      0.2291
     73  O          8.5710   10.3680    8.1240 O.2   218  HIS218     -0.2864
     74  CB        10.4690   11.6530   10.0420 C.3   218  HIS218      0.0771
     75  CG         9.8560   12.9600   10.4400 C.ar  218  HIS218      0.0820
     76  ND1        8.7340   13.0450   11.2350 N.ar  218  HIS218     -0.2267
     77  CD2       10.1980   14.2340   10.1340 C.ar  218  HIS218      0.1154
     78  CE1        8.4110   14.3150   11.4040 C.ar  218  HIS218      0.1986
     79  NE2        9.2850   15.0560   10.7470 N.ar  218  HIS218     -0.2212
@<TRIPOS>BOND
     1    33    32    2
     2    32    31    1
     3    31    30    1
     4    31    34    1
     5    34    35    1
     6    35    36    1
     7    36    37    1
     8    37    38    1
     9    55    54    1
    10    23    22    1
    11    23    24    2
    12    54    53   ar
    13    54    52   ar
    14    25    22    1
    15    25    26    1
    16    22    21    1
    17    53    51   ar
    18    52    50   ar
    19    26    27    1
    20    51    49   ar
    21    59    58    2
    22    50    49   ar
    23    58    57    1
    24    49    48    1
    25    47    46    2
    26    21    15   am
    27    16    15    2
    28    46    45    1
    29    62    63    1
    30    27    28   ar
    31    27    29   ar
    32    48    45    1
    33    15    14    1
    34    57    56    1
    35    57    60    1
    36    45    44    1
    37    65    64    2
    38    60    61    1
    39    63    64    1
    40    63    66    1
    41    68    67   ar
    42    14    13    1
    43    14    17    1
    44    64    70   am
    45    67    69   ar
    46    67    66    1
    47    44    41   am
    48    17    18    1
    49    42    41    2
    50    41    40    1
    51    72    73    2
    52    72    71    1
    53    70    71    1
    54    71    74    1
    55    39    40    1
    56    18    19    2
    57    18    20   am
    58    40    43    1
    59    74    75    1
    60    77    75   ar
    61    77    79   ar
    62    75    76   ar
    63    79    78   ar
    64    11    10    1
    65    76    78   ar
    66    10    12    1
    67    10     9    1
    68     8     7    2
    69     9     6    1
    70     7     6    1
    71     6     5    1
    72     4     3    2
    73     2     3    1
    74     2     1    1
