@<TRIPOS>MOLECULE
tmp/2i2bA01.pdb
 84 80 0 0 0
SMALL
GASTEIGER

@<TRIPOS>ATOM
      1  N         15.0070   13.3750   21.0620 N.3    44  GLY44      -0.1210
      2  CA        16.1090   12.9710   20.2020 C.3    44  GLY44       0.1956
      3  C         16.1130   13.7670   18.9090 C.2    44  GLY44       0.2612
      4  O         15.3720   14.7450   18.7610 O.2    44  GLY44      -0.2717
      5  N         16.9550   13.3430   17.9740 N.am   45  ASP45      -0.1959
      6  CA        16.9970   13.9400   16.6490 C.3    45  ASP45       0.1840
      7  C         15.6470   13.8220   15.9050 C.2    45  ASP45       0.2622
      8  O         15.2480   14.7420   15.1820 O.2    45  ASP45      -0.2715
      9  CB        18.1650   13.3600   15.8410 C.3    45  ASP45       0.1450
     10  CG        19.5140   13.9300   16.2640 C.2    45  ASP45       0.3671
     11  OD1       19.5540   15.0510   16.8230 O.co2  45  ASP45      -0.2456
     12  OD2       20.6040   13.3370   16.0590 O.co2  45  ASP45      -0.2456
     13  N         14.9390   12.7150   16.1160 N.am   46  GLY46      -0.1954
     14  CA        13.6010   12.5130   15.5440 C.3    46  GLY46       0.1869
     15  C         12.5850   13.5580   15.9870 C.2    46  GLY46       0.2309
     16  O         11.8210   14.0770   15.1730 O.2    46  GLY46      -0.2863
     17  N         13.3830   16.8710   14.3680 N.3    49  LEU49      -0.1245
     18  CA        12.8970   16.8540   12.9840 C.3    49  LEU49       0.1561
     19  C         11.4180   17.2370   12.9040 C.2    49  LEU49       0.2260
     20  O         11.0280   17.9950   12.0160 O.2    49  LEU49      -0.2867
     21  CB        13.1350   15.4750   12.3510 C.3    49  LEU49       0.0270
     22  CG        14.2230   15.1810   11.2920 C.3    49  LEU49       0.0019
     23  CD1       15.3580   16.1840   11.2040 C.3    49  LEU49       0.0001
     24  CD2       14.7930   13.7880   11.4970 C.3    49  LEU49       0.0001
     25  N         22.7060   14.8120   17.0430 N.3    74  PHE74      -0.1227
     26  CA        23.3870   15.8030   16.2200 C.3    74  PHE74       0.1736
     27  C         22.7030   17.1550   16.2560 C.2    74  PHE74       0.2595
     28  O         23.3660   18.1980   16.1970 O.2    74  PHE74      -0.2718
     29  CB        23.5510   15.2920   14.7820 C.3    74  PHE74       0.0547
     30  CG        24.7290   14.4090   14.6240 C.ar   74  PHE74      -0.0202
     31  CD1       25.9850   14.9540   14.3500 C.ar   74  PHE74      -0.0042
     32  CD2       24.6130   13.0480   14.8230 C.ar   74  PHE74      -0.0042
     33  CE1       27.0940   14.1490   14.2290 C.ar   74  PHE74      -0.0003
     34  CE2       25.7180   12.2270   14.6940 C.ar   74  PHE74      -0.0003
     35  CZ        26.9660   12.7810   14.3980 C.ar   74  PHE74      -0.0000
     36  N         21.3830   17.1400   16.3710 N.am   75  TYR75      -0.1976
     37  CA        20.6420   18.3780   16.5660 C.3    75  TYR75       0.1639
     38  C         20.3470   18.5750   18.0320 C.2    75  TYR75       0.2290
     39  O         20.1400   19.7030   18.4970 O.2    75  TYR75      -0.2864
     40  CB        19.3530   18.3730   15.7590 C.3    75  TYR75       0.0560
     41  CG        19.5720   18.1490   14.2770 C.ar   75  TYR75      -0.0198
     42  CD1       18.9880   17.0700   13.6270 C.ar   75  TYR75      -0.0009
     43  CD2       20.3710   19.0120   13.5320 C.ar   75  TYR75      -0.0009
     44  CE1       19.1800   16.8650   12.2700 C.ar   75  TYR75       0.0417
     45  CE2       20.5800   18.8070   12.1700 C.ar   75  TYR75       0.0417
     46  CZ        19.9840   17.7340   11.5480 C.ar   75  TYR75       0.1957
     47  OH        20.1900   17.5300   10.1970 O.3    75  TYR75      -0.2866
     48  N         17.4180   16.9760    6.9340 N.3   118  ASN118     -0.1240
     49  CA        18.3170   15.8300    6.7540 C.3   118  ASN118      0.1653
     50  C         18.5050   15.4740    5.2770 C.2   118  ASN118      0.2266
     51  O         19.6110   15.5100    4.7610 O.2   118  ASN118     -0.2867
     52  CB        17.7830   14.5770    7.4610 C.3   118  ASN118      0.1155
     53  CG        18.2620   14.4230    8.8990 C.2   118  ASN118      0.2627
     54  OD1       19.1440   15.1370    9.3780 O.2   118  ASN118     -0.2716
     55  ND2       17.6580   13.4660    9.6010 N.am  118  ASN118     -0.0877
     56  N         24.2040   18.6190    7.3390 N.3   154  SER154     -0.1217
     57  CA        23.9140   18.0250    8.6490 C.3   154  SER154      0.1889
     58  C         23.2090   16.6680    8.5460 C.2   154  SER154      0.2288
     59  O         23.2760   15.8510    9.4740 O.2   154  SER154     -0.2866
     60  CB        23.1130   18.9760    9.5380 C.3   154  SER154      0.2089
     61  OG        21.8720   19.2910    8.9390 O.3   154  SER154     -0.2183
     62  N         25.2490   12.6310    8.3220 N.3   157  THR157     -0.1203
     63  CA        25.4870   11.6670    9.4010 C.3   157  THR157      0.1994
     64  C         24.3200   10.7030    9.6030 C.2   157  THR157      0.2617
     65  O         24.4090    9.7910   10.4270 O.2   157  THR157     -0.2717
     66  CB        25.8170   12.3790   10.7510 C.3   157  THR157      0.1784
     67  OG1       24.8360   13.3830   11.0260 O.3   157  THR157     -0.2211
     68  CG2       27.1120   13.1860   10.6440 C.3   157  THR157      0.0376
     69  N         23.2390   10.8990    8.8430 N.am  158  ALA158     -0.1979
     70  CA        22.0490   10.0440    8.9530 C.3   158  ALA158      0.1597
     71  C         22.0140    9.0250    7.8070 C.2   158  ALA158      0.2287
     72  O         22.9700    8.2910    7.6180 O.2   158  ALA158     -0.2864
     73  CB        20.8000   10.8790    8.9640 C.3   158  ALA158      0.0319
     74  N         29.8640    8.4110   16.9340 N.3   256  PHE256     -0.1241
     75  CA        30.2980    7.2380   16.1810 C.3   256  PHE256      0.1605
     76  C         31.6010    6.5860   16.6620 C.2   256  PHE256      0.2264
     77  O         31.8260    5.3970   16.4050 O.2   256  PHE256     -0.2867
     78  CB        30.4060    7.5720   14.6880 C.3   256  PHE256      0.0534
     79  CG        29.1060    8.0410   14.0630 C.ar  256  PHE256     -0.0203
     80  CD1       28.9710    9.3460   13.6170 C.ar  256  PHE256     -0.0042
     81  CD2       28.0350    7.1730   13.9140 C.ar  256  PHE256     -0.0042
     82  CE1       27.7770    9.7800   13.0290 C.ar  256  PHE256     -0.0003
     83  CE2       26.8480    7.5960   13.3370 C.ar  256  PHE256     -0.0003
     84  CZ        26.7220    8.9060   12.8890 C.ar  256  PHE256     -0.0000
@<TRIPOS>BOND
     1    51    50    2
     2    50    49    1
     3    49    48    1
     4    49    52    1
     5    56    57    1
     6    52    53    1
     7    72    71    2
     8    71    70    1
     9    62    63    1
    10    58    57    1
    11    58    59    2
    12    57    60    1
    13    69    70    1
    14    69    64   am
    15    53    54    2
    16    53    55   am
    17    61    60    1
    18    70    73    1
    19    63    64    1
    20    63    66    1
    21    64    65    2
    22    47    46    1
    23    68    66    1
    24    66    67    1
    25    23    22    1
    26    22    24    1
    27    22    21    1
    28    46    45   ar
    29    46    44   ar
    30    20    19    2
    31    45    43   ar
    32    44    42   ar
    33    21    18    1
    34    84    82   ar
    35    84    83   ar
    36    19    18    1
    37    18    17    1
    38    82    80   ar
    39    83    81   ar
    40    43    41   ar
    41    80    79   ar
    42    42    41   ar
    43    81    79   ar
    44    79    78    1
    45    33    31   ar
    46    33    35   ar
    47    41    40    1
    48    31    30   ar
    49    35    34   ar
    50    30    29    1
    51    30    32   ar
    52    78    75    1
    53    34    32   ar
    54    29    26    1
    55    16    15    2
    56     8     7    2
    57    14    15    1
    58    14    13    1
    59    40    37    1
    60     9    10    1
    61     9     6    1
    62     7    13   am
    63     7     6    1
    64    12    10   ar
    65    75    76    1
    66    75    74    1
    67    28    27    2
    68    26    27    1
    69    26    25    1
    70    27    36   am
    71    10    11   ar
    72    36    37    1
    73    77    76    2
    74    37    38    1
    75     6     5    1
    76     5     3   am
    77    38    39    2
    78     4     3    2
    79     3     2    1
    80     2     1    1
