@<TRIPOS>MOLECULE
tmp/2i2cA00.pdb
 133 128 0 0 0
SMALL
GASTEIGER

@<TRIPOS>ATOM
      1  N         16.1210   13.1120   17.9400 N.3    45  ASP45      -0.1225
      2  CA        16.1810   13.8150   16.6630 C.3    45  ASP45       0.1805
      3  C         14.8400   13.8140   15.9270 C.2    45  ASP45       0.2598
      4  O         14.5270   14.7700   15.2160 O.2    45  ASP45      -0.2718
      5  CB        17.3030   13.2650   15.7820 C.3    45  ASP45       0.1424
      6  CG        18.6840   13.6160   16.3110 C.2    45  ASP45       0.3668
      7  OD1       18.8540   14.7160   16.8840 O.co2  45  ASP45      -0.2456
      8  OD2       19.6590   12.8490   16.2010 O.co2  45  ASP45      -0.2456
      9  N         14.0580   12.7480   16.1120 N.am   46  GLY46      -0.1957
     10  CA        12.6930   12.6610   15.5750 C.3    46  GLY46       0.1869
     11  C         11.7980   13.7850   16.0720 C.2    46  GLY46       0.2309
     12  O         11.1170   14.4430   15.2800 O.2    46  GLY46      -0.2863
     13  N         13.0620   16.9480   14.4850 N.3    49  LEU49      -0.1245
     14  CA        12.6170   17.0130   13.0910 C.3    49  LEU49       0.1561
     15  C         11.1560   17.4780   12.9800 C.2    49  LEU49       0.2260
     16  O         10.8280   18.2900   12.1160 O.2    49  LEU49      -0.2867
     17  CB        12.8390   15.6790   12.3710 C.3    49  LEU49       0.0270
     18  CG        14.2820   15.3100   11.9810 C.3    49  LEU49       0.0019
     19  CD1       14.3570   13.8710   11.4890 C.3    49  LEU49       0.0001
     20  CD2       14.8500   16.2590   10.9320 C.3    49  LEU49       0.0001
     21  N         21.7010    9.6410   21.6550 N.3    72  LEU72      -0.1245
     22  CA        21.6140   10.1390   20.2650 C.3    72  LEU72       0.1561
     23  C         20.8940   11.4760   20.0710 C.2    72  LEU72       0.2260
     24  O         19.6640   11.5420   19.9560 O.2    72  LEU72      -0.2867
     25  CB        21.1060    9.0610   19.2830 C.3    72  LEU72       0.0270
     26  CG        22.1160    8.3250   18.3850 C.3    72  LEU72       0.0019
     27  CD1       22.4630    9.1360   17.1310 C.3    72  LEU72       0.0001
     28  CD2       23.3890    7.9010   19.1260 C.3    72  LEU72       0.0001
     29  N         21.9390   14.5470   17.5650 N.3    74  PHE74      -0.1227
     30  CA        22.7150   15.3370   16.6260 C.3    74  PHE74       0.1736
     31  C         22.1720   16.7460   16.5370 C.2    74  PHE74       0.2595
     32  O         22.8870   17.6820   16.1830 O.2    74  PHE74      -0.2718
     33  CB        22.7550   14.6860   15.2390 C.3    74  PHE74       0.0547
     34  CG        24.0790   14.0890   14.9070 C.ar   74  PHE74      -0.0202
     35  CD1       25.1200   14.8950   14.4550 C.ar   74  PHE74      -0.0042
     36  CD2       24.3010   12.7300   15.0620 C.ar   74  PHE74      -0.0042
     37  CE1       26.3600   14.3670   14.1630 C.ar   74  PHE74      -0.0003
     38  CE2       25.5320   12.1830   14.7600 C.ar   74  PHE74      -0.0003
     39  CZ        26.5730   13.0050   14.3150 C.ar   74  PHE74      -0.0000
     40  N         20.8980   16.9000   16.8490 N.am   75  TYR75      -0.1976
     41  CA        20.3310   18.2210   16.8990 C.3    75  TYR75       0.1639
     42  C         20.1140   18.7090   18.3540 C.2    75  TYR75       0.2290
     43  O         19.6000   19.8090   18.5680 O.2    75  TYR75      -0.2864
     44  CB        19.0870   18.2940   16.0080 C.3    75  TYR75       0.0560
     45  CG        19.3720   18.0390   14.5260 C.ar   75  TYR75      -0.0198
     46  CD1       20.2200   18.8850   13.7970 C.ar   75  TYR75      -0.0009
     47  CD2       18.7860   16.9640   13.8540 C.ar   75  TYR75      -0.0009
     48  CE1       20.4820   18.6640   12.4360 C.ar   75  TYR75       0.0417
     49  CE2       19.0370   16.7370   12.4860 C.ar   75  TYR75       0.0417
     50  CZ        19.8850   17.5910   11.7880 C.ar   75  TYR75       0.1957
     51  OH        20.1390   17.3720   10.4510 O.3    75  TYR75      -0.2866
     52  N         17.2680   16.8590    7.0170 N.3   122  ASN122     -0.1225
     53  CA        18.1390   15.7030    6.8320 C.3   122  ASN122      0.1785
     54  C         18.2840   15.3370    5.3490 C.2   122  ASN122      0.2597
     55  O         19.3610   15.4670    4.7690 O.2   122  ASN122     -0.2718
     56  CB        17.6080   14.4850    7.6100 C.3   122  ASN122      0.1169
     57  CG        18.0940   14.4280    9.0620 C.2   122  ASN122      0.2627
     58  OD1       18.9680   15.1940    9.4940 O.2   122  ASN122     -0.2716
     59  ND2       17.5320   13.4970    9.8140 N.am  122  ASN122     -0.0877
     60  N         17.2070   14.8430    4.7460 N.am  123  GLU123     -0.1979
     61  CA        17.2710   14.3730    3.3600 C.3   123  GLU123      0.1602
     62  C         15.8940   14.1940    2.7200 C.2   123  GLU123      0.2287
     63  O         14.8680   14.1880    3.4060 O.2   123  GLU123     -0.2864
     64  CB        18.0870   13.0580    3.2520 C.3   123  GLU123      0.0415
     65  CG        17.3630   11.7980    3.7300 C.3   123  GLU123      0.1163
     66  CD        17.2140   11.7510    5.2340 C.2   123  GLU123      0.3649
     67  OE1       16.0620   11.7310    5.7150 O.co2 123  GLU123     -0.2457
     68  OE2       18.2450   11.7480    5.9430 O.co2 123  GLU123     -0.2457
     69  N         24.0890   18.6110    7.4210 N.3   158  SER158     -0.1217
     70  CA        23.7480   18.0160    8.7280 C.3   158  SER158      0.1889
     71  C         23.0830   16.6400    8.5810 C.2   158  SER158      0.2288
     72  O         23.2450   15.7660    9.4340 O.2   158  SER158     -0.2866
     73  CB        22.9230   18.9740    9.5960 C.3   158  SER158      0.2089
     74  OG        21.6600   19.2470    9.0270 O.3   158  SER158     -0.2183
     75  N         25.1890   12.5910    8.3480 N.3   161  THR161     -0.1203
     76  CA        25.4020   11.5950    9.4110 C.3   161  THR161      0.1994
     77  C         24.2390   10.6060    9.5530 C.2   161  THR161      0.2618
     78  O         24.3070    9.6640   10.3510 O.2   161  THR161     -0.2717
     79  CB        25.6250   12.2910   10.7720 C.3   161  THR161      0.1784
     80  OG1       24.6260   13.2950   10.9590 O.3   161  THR161     -0.2211
     81  CG2       26.9260   13.0920   10.7780 C.3   161  THR161      0.0376
     82  N         23.1740   10.8310    8.7940 N.am  162  ALA162     -0.1965
     83  CA        21.9570   10.0170    8.9140 C.3   162  ALA162      0.1728
     84  C         21.8810    8.9810    7.7860 C.2   162  ALA162      0.2616
     85  O         22.8350    8.2230    7.5800 O.2   162  ALA162     -0.2715
     86  CB        20.7130   10.9220    8.9590 C.3   162  ALA162      0.0334
     87  N         20.7590    8.9380    7.0620 N.am  163  TYR163     -0.1974
     88  CA        20.5730    7.9970    5.9410 C.3   163  TYR163      0.1639
     89  C         21.7750    7.9970    4.9590 C.2   163  TYR163      0.2290
     90  O         22.2610    6.9400    4.5740 O.2   163  TYR163     -0.2864
     91  CB        19.2770    8.3620    5.1990 C.3   163  TYR163      0.0560
     92  CG        18.5480    7.2310    4.4840 C.ar  163  TYR163     -0.0198
     93  CD1       19.1740    6.0110    4.1910 C.ar  163  TYR163     -0.0009
     94  CD2       17.2200    7.4010    4.0790 C.ar  163  TYR163     -0.0009
     95  CE1       18.4760    4.9810    3.5230 C.ar  163  TYR163      0.0417
     96  CE2       16.5210    6.3870    3.4280 C.ar  163  TYR163      0.0417
     97  CZ        17.1530    5.1910    3.1420 C.ar  163  TYR163      0.1957
     98  OH        16.4400    4.2140    2.4840 O.3   163  TYR163     -0.2866
     99  N         24.6420    5.7110    6.0510 N.3   166  SER166     -0.1217
    100  CA        24.3340    4.2940    5.8420 C.3   166  SER166      0.1889
    101  C         24.5210    3.8480    4.3970 C.2   166  SER166      0.2288
    102  O         24.7850    2.6800    4.1310 O.2   166  SER166     -0.2866
    103  CB        22.8980    3.9980    6.2670 C.3   166  SER166      0.2089
    104  OG        22.7160    4.3150    7.6190 O.3   166  SER166     -0.2183
    105  N         12.6500   13.8750    5.1590 N.3   222  ASP222     -0.1225
    106  CA        12.8870   13.5550    6.5740 C.3   222  ASP222      0.1805
    107  C         11.9570   12.4060    7.0010 C.2   222  ASP222      0.2597
    108  O         11.9520   11.3690    6.3470 O.2   222  ASP222     -0.2718
    109  CB        12.7370   14.8130    7.4510 C.3   222  ASP222      0.1424
    110  CG        13.7170   15.9140    7.0560 C.2   222  ASP222      0.3668
    111  OD1       14.8150   15.5890    6.5580 O.co2 222  ASP222     -0.2456
    112  OD2       13.4810   17.1260    7.2010 O.co2 222  ASP222     -0.2456
    113  N         11.1570   12.5810    8.0570 N.am  223  HIS223     -0.1975
    114  CA        10.2780   11.4920    8.5200 C.3   223  HIS223      0.1656
    115  C          9.0660   11.2480    7.6060 C.2   223  HIS223      0.2291
    116  O          8.5450   10.1330    7.5330 O.2   223  HIS223     -0.2864
    117  CB         9.8240   11.7100    9.9710 C.3   223  HIS223      0.0771
    118  CG         8.8460   10.6820   10.4550 C.ar  223  HIS223      0.0820
    119  ND1        9.2380    9.4760   10.9950 N.ar  223  HIS223     -0.2267
    120  CD2        7.4910   10.6690   10.4530 C.ar  223  HIS223      0.1154
    121  CE1        8.1680    8.7700   11.3170 C.ar  223  HIS223      0.1986
    122  NE2        7.0950    9.4700   10.9960 N.ar  223  HIS223     -0.2212
    123  N         29.6300    8.5270   16.9830 N.3   261  PHE261     -0.1241
    124  CA        30.0700    7.3450   16.2180 C.3   261  PHE261      0.1605
    125  C         31.3180    6.6340   16.7440 C.2   261  PHE261      0.2264
    126  O         31.5020    5.4360   16.4920 O.2   261  PHE261     -0.2867
    127  CB        30.2800    7.7080   14.7410 C.3   261  PHE261      0.0534
    128  CG        29.0260    8.1400   14.0410 C.ar  261  PHE261     -0.0203
    129  CD1       28.7520    9.4930   13.8500 C.ar  261  PHE261     -0.0042
    130  CD2       28.1030    7.1990   13.5950 C.ar  261  PHE261     -0.0042
    131  CE1       27.5880    9.8940   13.2050 C.ar  261  PHE261     -0.0003
    132  CE2       26.9360    7.5900   12.9610 C.ar  261  PHE261     -0.0003
    133  CZ        26.6750    8.9450   12.7620 C.ar  261  PHE261     -0.0000
@<TRIPOS>BOND
     1    98    97    1
     2    62    61    1
     3    62    63    2
     4    97    96   ar
     5    97    95   ar
     6    64    61    1
     7    64    65    1
     8    61    60    1
     9    96    94   ar
    10    95    93   ar
    11    65    66    1
    12    94    92   ar
    13   102   101    2
    14    93    92   ar
    15   101   100    1
    16    92    91    1
    17    90    89    2
    18    60    54   am
    19    55    54    2
    20    89    88    1
    21   105   106    1
    22    91    88    1
    23    66    67   ar
    24    66    68   ar
    25    54    53    1
    26   100    99    1
    27   100   103    1
    28    88    87    1
    29   103   104    1
    30   108   107    2
    31   111   110   ar
    32   106   107    1
    33   106   109    1
    34    53    52    1
    35    53    56    1
    36   107   113   am
    37   110   112   ar
    38   110   109    1
    39    87    84   am
    40    69    70    1
    41   116   115    2
    42    85    84    2
    43   115   114    1
    44    56    57    1
    45    84    83    1
    46   113   114    1
    47    75    76    1
    48   114   117    1
    49    71    70    1
    50    71    72    2
    51    70    73    1
    52    82    83    1
    53    82    77   am
    54    83    86    1
    55    74    73    1
    56    57    58    2
    57    57    59   am
    58    76    77    1
    59    76    79    1
    60    77    78    2
    61   117   118    1
    62    51    50    1
    63   120   118   ar
    64   120   122   ar
    65   118   119   ar
    66    79    81    1
    67    79    80    1
    68    20    18    1
    69   119   121   ar
    70   122   121   ar
    71    19    18    1
    72    50    48   ar
    73    50    49   ar
    74    18    17    1
    75    16    15    2
    76    17    14    1
    77    48    46   ar
    78    49    47   ar
    79   133   132   ar
    80   133   131   ar
    81   132   130   ar
    82    15    14    1
    83    14    13    1
    84   131   129   ar
    85   130   128   ar
    86    46    45   ar
    87   129   128   ar
    88    47    45   ar
    89   128   127    1
    90    37    39   ar
    91    37    35   ar
    92    39    38   ar
    93    35    34   ar
    94    45    44    1
    95   127   124    1
    96    38    36   ar
    97    34    36   ar
    98    34    33    1
    99     4     3    2
   100    33    30    1
   101    12    11    2
   102    10    11    1
   103    10     9    1
   104     5     6    1
   105     5     2    1
   106     3     9   am
   107     3     2    1
   108    44    41    1
   109    32    31    2
   110     8     6   ar
   111   124   125    1
   112   124   123    1
   113     6     7   ar
   114   126   125    2
   115    31    30    1
   116    31    40   am
   117    30    29    1
   118     2     1    1
   119    40    41    1
   120    41    42    1
   121    27    26    1
   122    42    43    2
   123    26    28    1
   124    26    25    1
   125    25    22    1
   126    24    23    2
   127    23    22    1
   128    22    21    1
