@<TRIPOS>MOLECULE
tmp/2i2cA01.pdb
 92 87 0 0 0
SMALL
GASTEIGER

@<TRIPOS>ATOM
      1  N         10.9640   37.2790   25.5120 N.3     1  MET1       -0.1245
      2  CA        10.9800   36.5570   24.2120 C.3     1  MET1        0.1570
      3  C          9.9350   35.4460   24.1980 C.2     1  MET1        0.2261
      4  O          9.7800   34.7180   25.1800 O.2     1  MET1       -0.2867
      5  CB        12.3700   35.9770   23.9520 C.3     1  MET1        0.0387
      6  CG        12.7600   35.9680   22.4940 C.3     1  MET1        0.0595
      7  SD        14.5240   35.7330   22.2310 S.3     1  MET1       -0.1393
      8  CE        14.8010   36.9160   20.9170 C.3     1  MET1        0.0692
      9  N          9.7810   32.7430   19.0150 N.3    37  GLU37      -0.1231
     10  CA        11.1020   33.1370   18.5290 C.3    37  GLU37       0.1699
     11  C         12.1360   32.0670   18.8870 C.2    37  GLU37       0.2592
     12  O         13.1980   31.9940   18.2690 O.2    37  GLU37      -0.2718
     13  CB        11.5200   34.4860   19.1150 C.3    37  GLU37       0.0402
     14  CG        10.5160   35.6080   18.8900 C.3    37  GLU37       0.1161
     15  CD        10.8260   36.8440   19.7100 C.2    37  GLU37       0.3649
     16  OE1       11.8310   37.5200   19.4090 O.co2  37  GLU37      -0.2457
     17  OE2       10.0630   37.1440   20.6540 O.co2  37  GLU37      -0.2457
     18  N         11.8200   31.2690   19.9100 N.am   38  ILE38      -0.1980
     19  CA        12.6360   30.1290   20.3220 C.3    38  ILE38       0.1595
     20  C         11.7690   28.8760   20.3650 C.2    38  ILE38       0.2287
     21  O         10.7010   28.8650   20.9760 O.2    38  ILE38      -0.2864
     22  CB        13.2820   30.3560   21.7250 C.3    38  ILE38       0.0276
     23  CG1       14.1310   31.6420   21.7800 C.3    38  ILE38       0.0022
     24  CG2       14.1010   29.1300   22.1480 C.3    38  ILE38       0.0022
     25  CD1       15.4140   31.6250   20.9470 C.3    38  ILE38       0.0001
     26  N         13.0440   31.9340    9.3840 N.3    60  ASP60      -0.1225
     27  CA        13.8020   33.1760    9.4980 C.3    60  ASP60       0.1805
     28  C         13.6320   33.8740   10.8480 C.2    60  ASP60       0.2598
     29  O         14.4400   34.7280   11.2090 O.2    60  ASP60      -0.2718
     30  CB        13.4350   34.1290    8.3550 C.3    60  ASP60       0.1424
     31  CG        14.2570   33.8830    7.1040 C.2    60  ASP60       0.3668
     32  OD1       13.8620   34.3750    6.0260 O.co2  60  ASP60      -0.2456
     33  OD2       15.3150   33.2200    7.1010 O.co2  60  ASP60      -0.2456
     34  N         12.5940   33.4920   11.5900 N.am   61  GLU61      -0.1965
     35  CA        12.2280   34.1550   12.8460 C.3    61  GLU61       0.1733
     36  C         12.5480   33.3400   14.0980 C.2    61  GLU61       0.2616
     37  O         12.4500   33.8530   15.2140 O.2    61  GLU61      -0.2715
     38  CB        10.7330   34.4810   12.8430 C.3    61  GLU61       0.0429
     39  CG        10.2980   35.4600   11.7700 C.3    61  GLU61       0.1163
     40  CD         8.8670   35.2260   11.3310 C.2    61  GLU61       0.3649
     41  OE1        7.9910   36.0410   11.6930 O.co2  61  GLU61      -0.2457
     42  OE2        8.6180   34.2170   10.6330 O.co2  61  GLU61      -0.2457
     43  N         12.9160   32.0730   13.9090 N.am   62  ILE62      -0.1963
     44  CA        13.0950   31.1290   15.0150 C.3    62  ILE62       0.1727
     45  C         14.5390   30.6560   15.1800 C.2    62  ILE62       0.2616
     46  O         15.2270   30.3950   14.1940 O.2    62  ILE62      -0.2715
     47  CB        12.1630   29.9040   14.8120 C.3    62  ILE62       0.0290
     48  CG1       10.6970   30.3340   14.9440 C.3    62  ILE62       0.0022
     49  CG2       12.5160   28.7660   15.7950 C.3    62  ILE62       0.0023
     50  CD1        9.6920   29.3360   14.4190 C.3    62  ILE62       0.0001
     51  N         14.9890   30.5660   16.4320 N.am   63  ALA63      -0.1977
     52  CA        16.2030   29.8190   16.7780 C.3    63  ALA63       0.1597
     53  C         15.8020   28.5400   17.5080 C.2    63  ALA63       0.2287
     54  O         15.0370   28.5850   18.4780 O.2    63  ALA63      -0.2864
     55  CB        17.1450   30.6520   17.6360 C.3    63  ALA63       0.0319
     56  N         23.5270   33.9860   23.9050 N.3    95  TYR95      -0.1241
     57  CA        23.7260   33.0520   22.7920 C.3    95  TYR95       0.1605
     58  C         23.9740   33.7010   21.4300 C.2    95  TYR95       0.2264
     59  O         23.4290   34.7650   21.1230 O.2    95  TYR95      -0.2867
     60  CB        22.5580   32.0560   22.6990 C.3    95  TYR95       0.0534
     61  CG        21.2280   32.6550   22.3000 C.ar   95  TYR95      -0.0201
     62  CD1       20.8390   32.7090   20.9600 C.ar   95  TYR95      -0.0009
     63  CD2       20.3470   33.1520   23.2640 C.ar   95  TYR95      -0.0009
     64  CE1       19.6120   33.2500   20.5890 C.ar   95  TYR95       0.0417
     65  CE2       19.1200   33.6940   22.9030 C.ar   95  TYR95       0.0417
     66  CZ        18.7610   33.7360   21.5660 C.ar   95  TYR95       0.1957
     67  OH        17.5470   34.2710   21.2060 O.3    95  TYR95      -0.2866
     68  N         23.8210   32.8070   17.2220 N.3    97  LYS97      -0.1245
     69  CA        23.1290   31.9100   16.3020 C.3    97  LYS97       0.1561
     70  C         24.0460   31.2400   15.2720 C.2    97  LYS97       0.2260
     71  O         25.0050   31.8420   14.7890 O.2    97  LYS97      -0.2867
     72  CB        21.9680   32.6380   15.6200 C.3    97  LYS97       0.0271
     73  CG        20.7880   32.8830   16.5640 C.3    97  LYS97       0.0035
     74  CD        19.7440   33.7960   15.9580 C.3    97  LYS97       0.0206
     75  CE        20.0870   35.2590   16.1720 C.3    97  LYS97       0.1093
     76  NZ        18.9390   36.1460   15.8380 N.3    97  LYS97      -0.1314
     77  N         23.7420   28.8270   11.6300 N.3    99  SER99      -0.1217
     78  CA        22.8350   28.4270   10.5480 C.3    99  SER99       0.1889
     79  C         23.3510   27.2190    9.7840 C.2    99  SER99       0.2288
     80  O         24.5350   27.1380    9.4880 O.2    99  SER99      -0.2866
     81  CB        22.6310   29.5750    9.5590 C.3    99  SER99       0.2089
     82  OG        22.1570   30.7300   10.2160 O.3    99  SER99      -0.2183
     83  N         18.1960   28.0560   11.8890 N.3   244  HIS244     -0.1241
     84  CA        19.0270   28.7580   12.8620 C.3   244  HIS244      0.1621
     85  C         18.9690   28.0380   14.2070 C.2   244  HIS244      0.2264
     86  O         17.8790   27.7410   14.7080 O.2   244  HIS244     -0.2867
     87  CB        18.5880   30.2200   13.0040 C.3   244  HIS244      0.0745
     88  CG        18.4850   30.9520   11.6990 C.ar  244  HIS244      0.0817
     89  ND1       19.5890   31.2990   10.9490 N.ar  244  HIS244     -0.2268
     90  CD2       17.4090   31.4000   11.0090 C.ar  244  HIS244      0.1154
     91  CE1       19.1980   31.9240    9.8530 C.ar  244  HIS244      0.1986
     92  NE2       17.8800   31.9990    9.8640 N.ar  244  HIS244     -0.2212
@<TRIPOS>BOND
     1    32    31   ar
     2    33    31   ar
     3    31    30    1
     4    30    27    1
     5    26    27    1
     6    80    79    2
     7    27    28    1
     8    81    82    1
     9    81    78    1
    10    79    78    1
    11    91    92   ar
    12    91    89   ar
    13    92    90   ar
    14    78    77    1
    15    42    40   ar
    16    28    29    2
    17    28    34   am
    18    89    88   ar
    19    90    88   ar
    20    40    41   ar
    21    40    39    1
    22    34    35    1
    23    88    87    1
    24    39    38    1
    25    83    84    1
    26    38    35    1
    27    35    36    1
    28    84    87    1
    29    84    85    1
    30    43    36   am
    31    43    44    1
    32    36    37    2
    33    46    45    2
    34    85    86    2
    35    50    48    1
    36    71    70    2
    37    47    48    1
    38    47    44    1
    39    47    49    1
    40    44    45    1
    41    45    51   am
    42    70    69    1
    43    72    69    1
    44    72    73    1
    45    76    75    1
    46    74    75    1
    47    74    73    1
    48    69    68    1
    49    51    52    1
    50    52    53    1
    51    52    55    1
    52    53    54    2
    53    12    11    2
    54    10    11    1
    55    10     9    1
    56    10    13    1
    57    11    18   am
    58    14    13    1
    59    14    15    1
    60    16    15   ar
    61    15    17   ar
    62    18    19    1
    63    19    20    1
    64    19    22    1
    65    20    21    2
    66    64    62   ar
    67    64    66   ar
    68     8     7    1
    69    25    23    1
    70    62    61   ar
    71    59    58    2
    72    67    66    1
    73    58    57    1
    74    66    65   ar
    75    22    23    1
    76    22    24    1
    77     7     6    1
    78    61    60    1
    79    61    63   ar
    80     6     5    1
    81    60    57    1
    82    57    56    1
    83    65    63   ar
    84     5     2    1
    85     3     2    1
    86     3     4    2
    87     2     1    1
