@<TRIPOS>MOLECULE
tmp/2i2dA01.pdb
 113 115 0 0 0
SMALL
GASTEIGER

@<TRIPOS>ATOM
      1  N         23.6600   30.0720   14.8410 N.3    95  VAL95      -0.1245
      2  CA        24.3150   29.3180   13.7770 C.3    95  VAL95       0.1561
      3  C         23.2320   28.8570   12.7900 C.2    95  VAL95       0.2260
      4  O         22.1170   28.4990   13.2000 O.2    95  VAL95      -0.2867
      5  CB        25.0840   28.0980   14.3560 C.3    95  VAL95       0.0252
      6  CG1       25.5890   27.1760   13.2470 C.3    95  VAL95       0.0019
      7  CG2       26.2390   28.5630   15.2370 C.3    95  VAL95       0.0019
      8  N         22.1920   26.3570    9.4000 N.3    97  TYR97      -0.1241
      9  CA        22.4860   25.2050    8.5490 C.3    97  TYR97       0.1605
     10  C         21.6530   25.2890    7.2780 C.2    97  TYR97       0.2264
     11  O         20.5390   25.8110    7.3300 O.2    97  TYR97      -0.2867
     12  CB        22.1700   23.8950    9.2750 C.3    97  TYR97       0.0534
     13  CG        23.1740   23.4510   10.3350 C.ar   97  TYR97      -0.0201
     14  CD1       24.2410   24.2720   10.7220 C.ar   97  TYR97      -0.0009
     15  CD2       23.0260   22.2180   10.9710 C.ar   97  TYR97      -0.0009
     16  CE1       25.1440   23.8680   11.7030 C.ar   97  TYR97       0.0417
     17  CE2       23.9150   21.8080   11.9580 C.ar   97  TYR97       0.0417
     18  CZ        24.9720   22.6400   12.3180 C.ar   97  TYR97       0.1957
     19  OH        25.8640   22.2400   13.2850 O.3    97  TYR97      -0.2866
     20  N         30.7040   18.9310    6.7110 N.3   165  HIS165     -0.1227
     21  CA        30.4990   20.0270    7.6330 C.3   165  HIS165      0.1737
     22  C         29.3840   20.9430    7.1390 C.2   165  HIS165      0.2438
     23  O         29.3650   21.3270    5.9570 O.2   165  HIS165     -0.2733
     24  CB        31.7640   20.8260    7.8590 C.3   165  HIS165      0.0758
     25  CG        31.6820   21.6950    9.0670 C.ar  165  HIS165      0.0818
     26  ND1       31.1490   22.9650    9.0340 N.ar  165  HIS165     -0.2268
     27  CD2       32.0060   21.4540   10.3590 C.ar  165  HIS165      0.1154
     28  CE1       31.1630   23.4750   10.2500 C.ar  165  HIS165      0.1986
     29  NE2       31.6890   22.5830   11.0690 N.ar  165  HIS165     -0.2212
     30  N         28.4280   21.2360    8.0210 N.am  166  PRO166     -0.2718
     31  CA        27.2130   21.9800    7.6450 C.3   166  PRO166      0.1535
     32  C         27.3870   23.4620    7.3000 C.2   166  PRO166      0.2599
     33  O         26.4380   24.0940    6.8480 O.2   166  PRO166     -0.2715
     34  CB        26.2660   21.7690    8.8440 C.3   166  PRO166      0.0310
     35  CG        27.1290   21.2840    9.9890 C.3   166  PRO166      0.0237
     36  CD        28.4020   20.7810    9.4270 C.3   166  PRO166      0.0939
     37  N         28.5830   24.0080    7.4790 N.am  167  SER167     -0.1950
     38  CA        28.9090   25.3200    6.9420 C.3   167  SER167      0.1924
     39  C         29.0740   25.3090    5.4090 C.2   167  SER167      0.2314
     40  O         29.1930   26.3650    4.7820 O.2   167  SER167     -0.2863
     41  CB        30.1840   25.8450    7.5960 C.3   167  SER167      0.2116
     42  OG        31.2930   25.0360    7.2430 O.3   167  SER167     -0.2180
     43  N         22.6700   28.7840   20.4500 N.3   239  ARG239     -0.1245
     44  CA        23.6040   28.2400   21.4580 C.3   239  ARG239      0.1563
     45  C         24.6620   29.3140   21.6630 C.2   239  ARG239      0.2260
     46  O         24.7050   30.2380   20.8620 O.2   239  ARG239     -0.2867
     47  CB        24.2200   26.8950   20.9720 C.3   239  ARG239      0.0307
     48  CG        25.0640   27.0280   19.7110 C.3   239  ARG239      0.0489
     49  CD        25.6230   25.6950   19.2430 C.3   239  ARG239      0.2205
     50  NE        26.4590   25.8400   18.0540 N.pl3 239  ARG239     -0.0865
     51  CZ        27.0370   24.8090   17.4260 C.cat 239  ARG239      0.5346
     52  NH1       26.8880   23.5730   17.8620 N.pl3 239  ARG239      0.1354
     53  NH2       27.7900   25.0220   16.3550 N.pl3 239  ARG239      0.1354
     54  N         30.3240   26.1490   22.8580 N.3   242  SER242     -0.1202
     55  CA        30.9590   25.4080   21.7760 C.3   242  SER242      0.2020
     56  C         30.5860   23.9280   21.8890 C.2   242  SER242      0.2619
     57  O         30.7990   23.2960   22.9280 O.2   242  SER242     -0.2717
     58  CB        32.4800   25.5640   21.8130 C.3   242  SER242      0.2103
     59  OG        33.0920   24.9100   20.7110 O.3   242  SER242     -0.2182
     60  N         29.9830   23.4030   20.8300 N.am  243  PHE243     -0.1962
     61  CA        29.8500   21.9640   20.6470 C.3   243  PHE243      0.1756
     62  C         30.0480   21.6910   19.1570 C.2   243  PHE243      0.2461
     63  O         29.0820   21.6220   18.3970 O.2   243  PHE243     -0.2730
     64  CB        28.4880   21.4560   21.1660 C.3   243  PHE243      0.0574
     65  CG        28.3570   19.9420   21.1990 C.ar  243  PHE243     -0.0200
     66  CD1       29.4840   19.1150   21.2030 C.ar  243  PHE243     -0.0042
     67  CD2       27.0960   19.3490   21.2660 C.ar  243  PHE243     -0.0042
     68  CE1       29.3620   17.7210   21.2390 C.ar  243  PHE243     -0.0003
     69  CE2       26.9560   17.9560   21.3150 C.ar  243  PHE243     -0.0003
     70  CZ        28.0960   17.1410   21.2940 C.ar  243  PHE243     -0.0000
     71  N         31.3080   21.5740   18.7370 N.am  244  PRO244     -0.2716
     72  CA        31.6400   21.4640   17.3150 C.3   244  PRO244      0.1536
     73  C         31.0680   20.2240   16.6260 C.2   244  PRO244      0.2599
     74  O         31.0550   19.1380   17.2050 O.2   244  PRO244     -0.2715
     75  CB        33.1770   21.4300   17.3100 C.3   244  PRO244      0.0310
     76  CG        33.5850   22.0280   18.6300 C.3   244  PRO244      0.0237
     77  CD        32.5130   21.5800   19.5890 C.3   244  PRO244      0.0939
     78  N         30.6110   20.3970   15.3860 N.am  245  PHE245     -0.1960
     79  CA        30.0700   19.3020   14.5520 C.3   245  PHE245      0.1771
     80  C         30.9210   18.0370   14.5800 C.2   245  PHE245      0.2619
     81  O         30.3990   16.9550   14.7970 O.2   245  PHE245     -0.2715
     82  CB        29.8710   19.7900   13.1150 C.3   245  PHE245      0.0574
     83  CG        29.3140   18.7570   12.1910 C.ar  245  PHE245     -0.0200
     84  CD1       27.9470   18.5080   12.1550 C.ar  245  PHE245     -0.0042
     85  CD2       30.1640   18.0510   11.3300 C.ar  245  PHE245     -0.0042
     86  CE1       27.4270   17.5460   11.2810 C.ar  245  PHE245     -0.0003
     87  CE2       29.6640   17.1010   10.4660 C.ar  245  PHE245     -0.0003
     88  CZ        28.2920   16.8370   10.4360 C.ar  245  PHE245     -0.0000
     89  N         32.2300   18.1700   14.3880 N.am  246  TRP246     -0.1974
     90  CA        33.1180   16.9980   14.3830 C.3   246  TRP246      0.1640
     91  C         33.1920   16.3050   15.7510 C.2   246  TRP246      0.2290
     92  O         33.3110   15.0900   15.8130 O.2   246  TRP246     -0.2864
     93  CB        34.5160   17.3490   13.8510 C.3   246  TRP246      0.0576
     94  CG        34.5260   17.8560   12.4170 C.ar  246  TRP246      0.0006
     95  CD1       35.0320   19.0420   11.9790 C.ar  246  TRP246      0.0946
     96  CD2       34.0090   17.1900   11.2570 C.ar  246  TRP246      0.0152
     97  NE1       34.8580   19.1650   10.6260 N.ar  246  TRP246     -0.2442
     98  CE2       34.2410   18.0370   10.1530 C.ar  246  TRP246      0.0810
     99  CE3       33.3780   15.9490   11.0330 C.ar  246  TRP246      0.0012
    100  CZ2       33.8650   17.6930    8.8530 C.ar  246  TRP246      0.0191
    101  CZ3       33.0000   15.6080    9.7500 C.ar  246  TRP246      0.0001
    102  CH2       33.2470   16.4750    8.6710 C.ar  246  TRP246      0.0015
    103  N         30.5360   16.3980   17.8190 N.3   248  ARG248     -0.1245
    104  CA        29.2160   15.7940   17.7760 C.3   248  ARG248      0.1563
    105  C         29.2170   14.4540   17.0050 C.2   248  ARG248      0.2260
    106  O         28.6040   13.4870   17.4310 O.2   248  ARG248     -0.2867
    107  CB        28.2440   16.7780   17.1310 C.3   248  ARG248      0.0307
    108  CG        26.8620   16.8190   17.7410 C.3   248  ARG248      0.0489
    109  CD        25.8640   17.6420   16.9360 C.3   248  ARG248      0.2205
    110  NE        26.5320   18.7800   16.3280 N.pl3 248  ARG248     -0.0865
    111  CZ        26.3110   20.0350   16.6490 C.cat 248  ARG248      0.5346
    112  NH1       25.3850   20.3420   17.5580 N.pl3 248  ARG248      0.1354
    113  NH2       27.0010   20.9880   16.0350 N.pl3 248  ARG248      0.1354
@<TRIPOS>BOND
     1    40    39    2
     2    39    38    1
     3    23    22    2
     4    20    21    1
     5    33    32    2
     6    38    37    1
     7    38    41    1
     8    22    21    1
     9    22    30   am
    10    42    41    1
    11    10    11    2
    12    10     9    1
    13    32    37   am
    14    32    31    1
    15    21    24    1
    16    31    30    1
    17    31    34    1
    18    24    25    1
    19    30    36    1
    20     9    12    1
    21     9     8    1
    22   102   100   ar
    23   102   101   ar
    24    34    35    1
    25   100    98   ar
    26    26    25   ar
    27    26    28   ar
    28    25    27   ar
    29    12    13    1
    30    36    35    1
    31   101    99   ar
    32    98    97   ar
    33    98    96   ar
    34    28    29   ar
    35    13    14   ar
    36    13    15   ar
    37    27    29   ar
    38    88    87   ar
    39    88    86   ar
    40    87    85   ar
    41    97    95   ar
    42    14    16   ar
    43    15    17   ar
    44    99    96   ar
    45    96    94   ar
    46    86    84   ar
    47    85    83   ar
    48    16    18   ar
    49    17    18   ar
    50    95    94   ar
    51    84    83   ar
    52    83    82    1
    53    18    19    1
    54    94    93    1
    55     3     4    2
    56     3     2    1
    57    82    79    1
    58     6     5    1
    59     2     5    1
    60     2     1    1
    61    93    90    1
    62     5     7    1
    63    90    89    1
    64    90    91    1
    65    89    80   am
    66    79    80    1
    67    79    78    1
    68    80    81    2
    69    78    73   am
    70    91    92    2
    71   113   111    1
    72   110   111    2
    73   110   109    1
    74    53    51    1
    75    73    74    2
    76    73    72    1
    77   111   112    1
    78   109   108    1
    79   105   106    2
    80   105   104    1
    81   107   108    1
    82   107   104    1
    83    75    72    1
    84    75    76    1
    85    72    71    1
    86    51    52    1
    87    51    50    2
    88   104   103    1
    89    50    49    1
    90    63    62    2
    91    76    77    1
    92    71    62   am
    93    71    77    1
    94    62    61    1
    95    49    48    1
    96    48    47    1
    97    43    44    1
    98    61    60    1
    99    61    64    1
   100    59    58    1
   101    60    56   am
   102    46    45    2
   103    47    44    1
   104    64    65    1
   105    65    66   ar
   106    65    67   ar
   107    66    68   ar
   108    68    70   ar
   109    67    69   ar
   110    70    69   ar
   111    44    45    1
   112    55    58    1
   113    55    56    1
   114    55    54    1
   115    56    57    2
