@<TRIPOS>MOLECULE
tmp/2i2dA00.pdb
 129 125 0 0 0
SMALL
GASTEIGER

@<TRIPOS>ATOM
      1  N         15.9240   13.2660   17.8770 N.3    45  ASP45      -0.1225
      2  CA        16.0740   13.9620   16.6110 C.3    45  ASP45       0.1805
      3  C         14.7790   13.9780   15.8040 C.2    45  ASP45       0.2598
      4  O         14.5130   14.9560   15.1070 O.2    45  ASP45      -0.2718
      5  CB        17.2550   13.3960   15.8010 C.3    45  ASP45       0.1424
      6  CG        18.5920   13.9650   16.2530 C.2    45  ASP45       0.3668
      7  OD1       18.6100   15.0260   16.9210 O.co2  45  ASP45      -0.2456
      8  OD2       19.6830   13.4280   15.9900 O.co2  45  ASP45      -0.2456
      9  N         13.9930   12.8970   15.9070 N.am   46  GLY46      -0.1957
     10  CA        12.6320   12.8380   15.3680 C.3    46  GLY46       0.1869
     11  C         11.7290   13.9230   15.9400 C.2    46  GLY46       0.2309
     12  O         10.9850   14.5750   15.1960 O.2    46  GLY46      -0.2863
     13  N         12.9800   17.1030   14.3410 N.3    49  LEU49      -0.1245
     14  CA        12.5110   17.1610   12.9480 C.3    49  LEU49       0.1561
     15  C         11.0480   17.6090   12.8570 C.2    49  LEU49       0.2260
     16  O         10.7040   18.4300   12.0060 O.2    49  LEU49      -0.2867
     17  CB        12.6850   15.8170   12.2380 C.3    49  LEU49       0.0270
     18  CG        13.9020   15.3890   11.3950 C.3    49  LEU49       0.0019
     19  CD1       14.8020   16.5320   10.9090 C.3    49  LEU49       0.0001
     20  CD2       14.7120   14.3090   12.0870 C.3    49  LEU49       0.0001
     21  N         21.8240   12.5380   19.8930 N.3    70  GLY70      -0.1210
     22  CA        21.1490   13.6660   19.2370 C.3    70  GLY70       0.1956
     23  C         22.1110   14.5720   18.4740 C.2    70  GLY70       0.2612
     24  O         23.0160   15.1640   19.0740 O.2    70  GLY70      -0.2717
     25  N         21.9280   14.6650   17.1570 N.am   71  PHE71      -0.1962
     26  CA        22.6710   15.6230   16.3490 C.3    71  PHE71       0.1771
     27  C         22.0340   16.9950   16.3480 C.2    71  PHE71       0.2619
     28  O         22.7240   17.9910   16.1790 O.2    71  PHE71      -0.2715
     29  CB        22.8700   15.1280   14.9030 C.3    71  PHE71       0.0574
     30  CG        24.1370   14.3690   14.7210 C.ar   71  PHE71      -0.0200
     31  CD1       24.1610   12.9930   14.8970 C.ar   71  PHE71      -0.0042
     32  CD2       25.3270   15.0360   14.4380 C.ar   71  PHE71      -0.0042
     33  CE1       25.3500   12.2750   14.7530 C.ar   71  PHE71      -0.0003
     34  CE2       26.5240   14.3400   14.2980 C.ar   71  PHE71      -0.0003
     35  CZ        26.5370   12.9490   14.4560 C.ar   71  PHE71      -0.0000
     36  N         20.7190   17.0510   16.5270 N.am   72  TYR72      -0.1974
     37  CA        20.0530   18.3350   16.6890 C.3    72  TYR72       0.1639
     38  C         19.8590   18.7390   18.1690 C.2    72  TYR72       0.2290
     39  O         19.5670   19.8920   18.4610 O.2    72  TYR72      -0.2864
     40  CB        18.7800   18.3770   15.8590 C.3    72  TYR72       0.0560
     41  CG        19.0420   18.1380   14.3790 C.ar   72  TYR72      -0.0198
     42  CD1       19.9490   18.9370   13.6710 C.ar   72  TYR72      -0.0009
     43  CD2       18.3950   17.1130   13.6920 C.ar   72  TYR72      -0.0009
     44  CE1       20.1970   18.7280   12.3210 C.ar   72  TYR72       0.0417
     45  CE2       18.6310   16.8940   12.3390 C.ar   72  TYR72       0.0417
     46  CZ        19.5340   17.6980   11.6580 C.ar   72  TYR72       0.1957
     47  OH        19.7660   17.4880   10.3240 O.3    72  TYR72      -0.2866
     48  N         16.9840   16.8630    6.9940 N.3   114  ASN114     -0.1225
     49  CA        17.8340   15.6940    6.8120 C.3   114  ASN114      0.1785
     50  C         17.9740   15.3390    5.3240 C.2   114  ASN114      0.2597
     51  O         19.0390   15.5040    4.7500 O.2   114  ASN114     -0.2718
     52  CB        17.3250   14.4940    7.6120 C.3   114  ASN114      0.1169
     53  CG        17.8350   14.4660    9.0640 C.2   114  ASN114      0.2627
     54  OD1       18.7330   15.2270    9.4670 O.2   114  ASN114     -0.2716
     55  ND2       17.2600   13.5710    9.8500 N.am  114  ASN114     -0.0877
     56  N         16.9070   14.8650    4.6940 N.am  115  GLU115     -0.1979
     57  CA        17.0150   14.3930    3.3090 C.3   115  GLU115      0.1602
     58  C         15.6550   14.1930    2.6560 C.2   115  GLU115      0.2287
     59  O         14.6080   14.2110    3.3230 O.2   115  GLU115     -0.2864
     60  CB        17.8500   13.0970    3.2220 C.3   115  GLU115      0.0415
     61  CG        17.1420   11.8190    3.6420 C.3   115  GLU115      0.1163
     62  CD        16.8620   11.7540    5.1340 C.2   115  GLU115      0.3649
     63  OE1       15.6860   11.6660    5.5030 O.co2 115  GLU115     -0.2457
     64  OE2       17.8020   11.8040    5.9330 O.co2 115  GLU115     -0.2457
     65  N         23.7750   18.5480    7.4020 N.3   150  SER150     -0.1217
     66  CA        23.4870   17.9530    8.7060 C.3   150  SER150      0.1889
     67  C         22.7750   16.6090    8.5570 C.2   150  SER150      0.2288
     68  O         22.8440   15.7520    9.4330 O.2   150  SER150     -0.2866
     69  CB        22.7310   18.9230    9.6340 C.3   150  SER150      0.2089
     70  OG        21.4970   19.3510    9.0980 O.3   150  SER150     -0.2183
     71  N         24.9030   12.6160    8.3850 N.3   153  THR153     -0.1203
     72  CA        25.1300   11.6590    9.4720 C.3   153  THR153      0.1994
     73  C         23.9730   10.6680    9.6140 C.2   153  THR153      0.2618
     74  O         24.0380    9.7290   10.4070 O.2   153  THR153     -0.2717
     75  CB        25.3710   12.4030   10.8020 C.3   153  THR153      0.1784
     76  OG1       24.3890   13.4260   10.9540 O.3   153  THR153     -0.2211
     77  CG2       26.6630   13.1850   10.7580 C.3   153  THR153      0.0376
     78  N         22.9290   10.8720    8.8160 N.am  154  ALA154     -0.1965
     79  CA        21.6930   10.1050    8.9480 C.3   154  ALA154      0.1728
     80  C         21.6290    9.0640    7.8390 C.2   154  ALA154      0.2616
     81  O         22.5940    8.3390    7.6190 O.2   154  ALA154     -0.2715
     82  CB        20.4790   11.0280    8.9210 C.3   154  ALA154      0.0334
     83  N         20.5020    9.0130    7.1340 N.am  155  TYR155     -0.1974
     84  CA        20.3000    8.0740    6.0280 C.3   155  TYR155      0.1639
     85  C         21.4520    8.0380    4.9940 C.2   155  TYR155      0.2290
     86  O         21.9340    6.9670    4.6370 O.2   155  TYR155     -0.2864
     87  CB        18.9530    8.3520    5.3750 C.3   155  TYR155      0.0560
     88  CG        18.3800    7.2050    4.5910 C.ar  155  TYR155     -0.0198
     89  CD1       18.9400    5.9280    4.6450 C.ar  155  TYR155     -0.0009
     90  CD2       17.2410    7.3850    3.8320 C.ar  155  TYR155     -0.0009
     91  CE1       18.4050    4.8790    3.9450 C.ar  155  TYR155      0.0417
     92  CE2       16.6870    6.3230    3.1240 C.ar  155  TYR155      0.0417
     93  CZ        17.2800    5.0800    3.1760 C.ar  155  TYR155      0.1957
     94  OH        16.7170    4.0460    2.4610 O.3   155  TYR155     -0.2866
     95  N         24.3410    5.7640    6.0940 N.3   158  SER158     -0.1217
     96  CA        24.0400    4.3400    5.9150 C.3   158  SER158      0.1889
     97  C         24.1550    3.8990    4.4580 C.2   158  SER158      0.2288
     98  O         24.2720    2.7050    4.1630 O.2   158  SER158     -0.2866
     99  CB        22.6400    4.0370    6.4160 C.3   158  SER158      0.2089
    100  OG        22.5060    4.4900    7.7300 O.3   158  SER158     -0.2183
    101  N         12.4700   13.9460    5.0770 N.3   214  ASP214     -0.1225
    102  CA        12.7090   13.6440    6.4880 C.3   214  ASP214      0.1805
    103  C         11.7880   12.4850    6.8870 C.2   214  ASP214      0.2597
    104  O         11.8510   11.4320    6.2530 O.2   214  ASP214     -0.2718
    105  CB        12.5200   14.9080    7.3520 C.3   214  ASP214      0.1424
    106  CG        13.4920   16.0060    6.9770 C.2   214  ASP214      0.3668
    107  OD1       14.5310   15.6880    6.3950 O.co2 214  ASP214     -0.2456
    108  OD2       13.3290   17.2060    7.2110 O.co2 214  ASP214     -0.2456
    109  N         10.9190   12.6630    7.8830 N.am  215  HIS215     -0.1975
    110  CA        10.0540   11.5590    8.3150 C.3   215  HIS215      0.1656
    111  C          8.8190   11.3010    7.4230 C.2   215  HIS215      0.2291
    112  O          8.3080   10.1770    7.3710 O.2   215  HIS215     -0.2864
    113  CB         9.6270   11.7230    9.7790 C.3   215  HIS215      0.0771
    114  CG         8.9640   10.5050   10.3470 C.ar  215  HIS215      0.0820
    115  ND1        7.6040   10.4300   10.5720 N.ar  215  HIS215     -0.2267
    116  CD2        9.4700    9.2980   10.6980 C.ar  215  HIS215      0.1154
    117  CE1        7.3050    9.2390   11.0590 C.ar  215  HIS215      0.1986
    118  NE2        8.4190    8.5320   11.1440 N.ar  215  HIS215     -0.2212
    119  N         29.3680    8.4530   16.9920 N.3   253  PHE253     -0.1241
    120  CA        29.8340    7.2970   16.2050 C.3   253  PHE253      0.1605
    121  C         31.1000    6.5940   16.7090 C.2   253  PHE253      0.2264
    122  O         31.2830    5.4090   16.4380 O.2   253  PHE253     -0.2867
    123  CB        29.9700    7.6580   14.7060 C.3   253  PHE253      0.0534
    124  CG        28.6620    8.0890   14.0510 C.ar  253  PHE253     -0.0203
    125  CD1       28.4780    9.4010   13.6300 C.ar  253  PHE253     -0.0042
    126  CD2       27.6310    7.1790   13.8460 C.ar  253  PHE253     -0.0042
    127  CE1       27.2840    9.8080   13.0230 C.ar  253  PHE253     -0.0003
    128  CE2       26.4280    7.5760   13.2440 C.ar  253  PHE253     -0.0003
    129  CZ        26.2520    8.8890   12.8360 C.ar  253  PHE253     -0.0000
@<TRIPOS>BOND
     1    94    93    1
     2    58    57    1
     3    58    59    2
     4    92    93   ar
     5    92    90   ar
     6    93    91   ar
     7    60    57    1
     8    60    61    1
     9    57    56    1
    10    61    62    1
    11    90    88   ar
    12    91    89   ar
    13    98    97    2
    14    97    96    1
    15    88    89   ar
    16    88    87    1
    17    86    85    2
    18    56    50   am
    19    51    50    2
    20    85    84    1
    21   101   102    1
    22    62    63   ar
    23    62    64   ar
    24    50    49    1
    25    87    84    1
    26    96    95    1
    27    96    99    1
    28    84    83    1
    29   104   103    2
    30   107   106   ar
    31    99   100    1
    32   102   103    1
    33   102   105    1
    34    49    48    1
    35    49    52    1
    36   103   109   am
    37   106   108   ar
    38   106   105    1
    39    83    80   am
    40   112   111    2
    41    65    66    1
    42   111   110    1
    43    52    53    1
    44    81    80    2
    45    80    79    1
    46   109   110    1
    47   110   113    1
    48    71    72    1
    49    67    66    1
    50    67    68    2
    51    66    69    1
    52    78    79    1
    53    78    73   am
    54    82    79    1
    55    53    54    2
    56    53    55   am
    57    70    69    1
    58    72    73    1
    59    72    75    1
    60    73    74    2
    61   113   114    1
    62    47    46    1
    63   114   115   ar
    64   114   116   ar
    65   115   117   ar
    66   116   118   ar
    67    77    75    1
    68    75    76    1
    69    19    18    1
    70   117   118   ar
    71    18    20    1
    72    18    17    1
    73    46    44   ar
    74    46    45   ar
    75    16    15    2
    76    17    14    1
    77    44    42   ar
    78    45    43   ar
    79   129   127   ar
    80   129   128   ar
    81    15    14    1
    82    14    13    1
    83   127   125   ar
    84   128   126   ar
    85   125   124   ar
    86    42    41   ar
    87    43    41   ar
    88   126   124   ar
    89   124   123    1
    90    34    32   ar
    91    34    35   ar
    92    41    40    1
    93    32    30   ar
    94    35    33   ar
    95   123   120    1
    96    30    31   ar
    97    30    29    1
    98    33    31   ar
    99    29    26    1
   100     4     3    2
   101    12    11    2
   102    10     9    1
   103    10    11    1
   104     5     6    1
   105     5     2    1
   106     3     9   am
   107     3     2    1
   108    40    37    1
   109     8     6   ar
   110    28    27    2
   111   120   121    1
   112   120   119    1
   113     6     7   ar
   114    27    26    1
   115    27    36   am
   116    26    25    1
   117   122   121    2
   118    36    37    1
   119     2     1    1
   120    37    38    1
   121    25    23   am
   122    38    39    2
   123    23    24    2
   124    23    22    1
   125    22    21    1
