@<TRIPOS>MOLECULE
tmp/2i2fA00.pdb
 142 136 0 0 0
SMALL
GASTEIGER

@<TRIPOS>ATOM
      1  N         15.3060   12.5820   18.1920 N.3    45  ASN45      -0.1225
      2  CA        15.5740   13.3000   16.9460 C.3    45  ASN45       0.1785
      3  C         14.2950   13.5260   16.1300 C.2    45  ASN45       0.2597
      4  O         14.1790   14.5180   15.4110 O.2    45  ASN45      -0.2718
      5  CB        16.6520   12.5940   16.1160 C.3    45  ASN45       0.1169
      6  CG        18.0210   12.6340   16.7770 C.2    45  ASN45       0.2627
      7  OD1       18.8350   13.5180   16.4940 O.2    45  ASN45      -0.2716
      8  ND2       18.2820   11.6770   17.6650 N.am   45  ASN45      -0.0877
      9  N         13.3380   12.6080   16.2730 N.am   46  GLY46      -0.1957
     10  CA        12.0190   12.7300   15.6520 C.3    46  GLY46       0.1869
     11  C         11.2160   13.8970   16.2010 C.2    46  GLY46       0.2309
     12  O         10.5290   14.5920   15.4480 O.2    46  GLY46      -0.2863
     13  N         12.6820   17.0120   14.6290 N.3    49  LEU49      -0.1245
     14  CA        12.2250   17.1040   13.2390 C.3    49  LEU49       0.1561
     15  C         10.7790   17.6190   13.1560 C.2    49  LEU49       0.2260
     16  O         10.4760   18.4670   12.3170 O.2    49  LEU49      -0.2867
     17  CB        12.3810   15.7540   12.5110 C.3    49  LEU49       0.0270
     18  CG        13.7890   15.2890   12.1150 C.3    49  LEU49       0.0019
     19  CD1       13.7690   13.8470   11.5960 C.3    49  LEU49       0.0001
     20  CD2       14.4110   16.2160   11.0820 C.3    49  LEU49       0.0001
     21  N         21.7460   10.7280   22.3670 N.3    72  LEU72      -0.1245
     22  CA        21.7430   10.6410   20.8680 C.3    72  LEU72       0.1561
     23  C         21.1270   11.9440   20.3280 C.2    72  LEU72       0.2260
     24  O         19.9390   12.0070   19.9890 O.2    72  LEU72      -0.2867
     25  CB        21.1400    9.3660   20.2420 C.3    72  LEU72       0.0270
     26  CG        22.0340    8.8880   19.0530 C.3    72  LEU72       0.0019
     27  CD1       23.5070    8.6410   19.4970 C.3    72  LEU72       0.0001
     28  CD2       21.5550    7.6370   18.3220 C.3    72  LEU72       0.0001
     29  N         21.7160   14.8490   17.6610 N.3    74  PHE74      -0.1227
     30  CA        22.3280   15.4770   16.5140 C.3    74  PHE74       0.1736
     31  C         21.8300   16.9030   16.3500 C.2    74  PHE74       0.2595
     32  O         22.5070   17.7430   15.7540 O.2    74  PHE74      -0.2718
     33  CB        22.0170   14.6650   15.2500 C.3    74  PHE74       0.0547
     34  CG        22.4790   13.2330   15.3200 C.ar   74  PHE74      -0.0202
     35  CD1       23.7540   12.8810   14.8920 C.ar   74  PHE74      -0.0042
     36  CD2       21.6420   12.2390   15.8270 C.ar   74  PHE74      -0.0042
     37  CE1       24.1910   11.5600   14.9600 C.ar   74  PHE74      -0.0003
     38  CE2       22.0700   10.9140   15.9040 C.ar   74  PHE74      -0.0003
     39  CZ        23.3470   10.5740   15.4680 C.ar   74  PHE74      -0.0000
     40  N         20.6380   17.1690   16.8590 N.am   75  TYR75      -0.1976
     41  CA        20.1380   18.5330   16.8790 C.3    75  TYR75       0.1639
     42  C         19.9560   19.0970   18.3070 C.2    75  TYR75       0.2290
     43  O         19.9230   20.3180   18.4710 O.2    75  TYR75      -0.2864
     44  CB        18.8980   18.6810   15.9860 C.3    75  TYR75       0.0560
     45  CG        19.1690   18.3270   14.5240 C.ar   75  TYR75      -0.0198
     46  CD1       20.0810   19.0650   13.7650 C.ar   75  TYR75      -0.0009
     47  CD2       18.5250   17.2540   13.9100 C.ar   75  TYR75      -0.0009
     48  CE1       20.3470   18.7460   12.4380 C.ar   75  TYR75       0.0417
     49  CE2       18.7770   16.9260   12.5710 C.ar   75  TYR75       0.0417
     50  CZ        19.6930   17.6760   11.8430 C.ar   75  TYR75       0.1957
     51  OH        19.9600   17.3720   10.5250 O.3    75  TYR75      -0.2866
     52  N         17.0120   16.8580    7.0490 N.3   120  ASN120     -0.1225
     53  CA        17.9110   15.7170    6.8700 C.3   120  ASN120      0.1785
     54  C         18.0680   15.3490    5.3920 C.2   120  ASN120      0.2597
     55  O         19.1510   15.4800    4.8250 O.2   120  ASN120     -0.2718
     56  CB        17.4130   14.4910    7.6520 C.3   120  ASN120      0.1169
     57  CG        17.7500   14.5360    9.1400 C.2   120  ASN120      0.2627
     58  OD1       18.6340   15.2770    9.5950 O.2   120  ASN120     -0.2716
     59  ND2       17.0400   13.7270    9.9070 N.am  120  ASN120     -0.0877
     60  N         16.9860   14.8740    4.7780 N.am  121  GLU121     -0.1979
     61  CA        17.0400   14.3810    3.3990 C.3   121  GLU121      0.1602
     62  C         15.6620   14.1920    2.7860 C.2   121  GLU121      0.2287
     63  O         14.6280   14.2250    3.4830 O.2   121  GLU121     -0.2864
     64  CB        17.8230   13.0470    3.3090 C.3   121  GLU121      0.0415
     65  CG        17.0550   11.8110    3.7720 C.3   121  GLU121      0.1163
     66  CD        16.8920   11.7510    5.2790 C.2   121  GLU121      0.3649
     67  OE1       15.7360   11.7590    5.7510 O.co2 121  GLU121     -0.2457
     68  OE2       17.9140   11.7040    5.9930 O.co2 121  GLU121     -0.2457
     69  N         11.8520    6.3660   -4.1020 N.3   125  LYS125     -0.1245
     70  CA        11.7940    4.9410   -4.4110 C.3   125  LYS125      0.1561
     71  C         10.5860    4.7280   -5.3230 C.2   125  LYS125      0.2260
     72  O          9.7730    5.6410   -5.5050 O.2   125  LYS125     -0.2867
     73  CB        11.6520    4.1170   -3.1270 C.3   125  LYS125      0.0271
     74  CG        12.7350    4.4020   -2.0480 C.3   125  LYS125      0.0035
     75  CD        12.4000    3.6990   -0.7240 C.3   125  LYS125      0.0206
     76  CE        13.4520    3.9970    0.3490 C.3   125  LYS125      0.1093
     77  NZ        13.1490    3.2860    1.6450 N.3   125  LYS125     -0.1314
     78  N         23.7900   18.5850    7.3920 N.3   156  SER156     -0.1217
     79  CA        23.4870   18.0100    8.7020 C.3   156  SER156      0.1889
     80  C         22.8230   16.6450    8.5510 C.2   156  SER156      0.2288
     81  O         23.0140   15.7630    9.3860 O.2   156  SER156     -0.2866
     82  CB        22.6930   18.9640    9.6050 C.3   156  SER156      0.2089
     83  OG        21.3970   19.2460    9.1080 O.3   156  SER156     -0.2183
     84  N         24.8280   12.5530    8.4290 N.3   159  THR159     -0.1203
     85  CA        25.0850   11.5710    9.5030 C.3   159  THR159      0.1994
     86  C         23.9680   10.5260    9.6090 C.2   159  THR159      0.2618
     87  O         24.0530    9.5620   10.3970 O.2   159  THR159     -0.2717
     88  CB        25.2000   12.2790   10.8590 C.3   159  THR159      0.1784
     89  OG1       24.0710   13.1440   11.0270 O.3   159  THR159     -0.2211
     90  CG2       26.3980   13.2240   10.8990 C.3   159  THR159      0.0376
     91  N         22.9130   10.7310    8.8330 N.am  160  ALA160     -0.1965
     92  CA        21.7230    9.8800    8.9330 C.3   160  ALA160      0.1728
     93  C         21.6440    8.9030    7.7610 C.2   160  ALA160      0.2616
     94  O         22.6160    8.1890    7.4920 O.2   160  ALA160     -0.2715
     95  CB        20.4720   10.7340    9.0430 C.3   160  ALA160      0.0334
     96  N         20.5060    8.8750    7.0620 N.am  161  TYR161     -0.1974
     97  CA        20.2900    7.9500    5.9350 C.3   161  TYR161      0.1639
     98  C         21.4700    7.9740    4.9470 C.2   161  TYR161      0.2290
     99  O         21.9510    6.9260    4.5130 O.2   161  TYR161     -0.2864
    100  CB        18.9810    8.3250    5.2180 C.3   161  TYR161      0.0560
    101  CG        18.2090    7.2090    4.5310 C.ar  161  TYR161     -0.0198
    102  CD1       18.7950    5.9740    4.2200 C.ar  161  TYR161     -0.0009
    103  CD2       16.8740    7.4140    4.1580 C.ar  161  TYR161     -0.0009
    104  CE1       18.0570    4.9680    3.5590 C.ar  161  TYR161      0.0417
    105  CE2       16.1350    6.4220    3.5190 C.ar  161  TYR161      0.0417
    106  CZ        16.7280    5.2110    3.2130 C.ar  161  TYR161      0.1957
    107  OH        15.9670    4.2580    2.5710 O.3   161  TYR161     -0.2866
    108  N         24.3580    5.7520    6.0280 N.3   164  SER164     -0.1217
    109  CA        24.0400    4.3280    5.8410 C.3   164  SER164      0.1889
    110  C         24.1960    3.8750    4.3930 C.2   164  SER164      0.2288
    111  O         24.4270    2.6870    4.1280 O.2   164  SER164     -0.2866
    112  CB        22.6060    4.0560    6.2980 C.3   164  SER164      0.2089
    113  OG        22.3980    4.5640    7.5970 O.3   164  SER164     -0.2183
    114  N         12.3520   13.9360    5.2250 N.3   220  ASP220     -0.1225
    115  CA        12.5850   13.6520    6.6410 C.3   220  ASP220      0.1805
    116  C         11.6850   12.4790    7.0650 C.2   220  ASP220      0.2597
    117  O         11.7500   11.4220    6.4310 O.2   220  ASP220     -0.2718
    118  CB        12.3960   14.9280    7.4880 C.3   220  ASP220      0.1424
    119  CG        13.4130   16.0130    7.1350 C.2   220  ASP220      0.3668
    120  OD1       14.4890   15.6740    6.6000 O.co2 220  ASP220     -0.2456
    121  OD2       13.2290   17.2310    7.3430 O.co2 220  ASP220     -0.2456
    122  N         10.8470   12.6480    8.0920 N.am  221  HIS221     -0.1975
    123  CA         9.9700   11.5550    8.5550 C.3   221  HIS221      0.1656
    124  C          8.8140   11.2630    7.5910 C.2   221  HIS221      0.2291
    125  O          8.3630   10.1190    7.4810 O.2   221  HIS221     -0.2864
    126  CB         9.4380   11.8430    9.9690 C.3   221  HIS221      0.0771
    127  CG         8.4220   10.8490   10.4600 C.ar  221  HIS221      0.0820
    128  ND1        8.7490    9.5550   10.8080 N.ar  221  HIS221     -0.2267
    129  CD2        7.0910   10.9700   10.6770 C.ar  221  HIS221      0.1154
    130  CE1        7.6630    8.9200   11.2130 C.ar  221  HIS221      0.1986
    131  NE2        6.6420    9.7560   11.1430 N.ar  221  HIS221     -0.2212
    132  N         29.3430    8.5410   16.9910 N.3   259  PHE259     -0.1241
    133  CA        29.7910    7.3680   16.2220 C.3   259  PHE259      0.1605
    134  C         31.0520    6.6720   16.7600 C.2   259  PHE259      0.2264
    135  O         31.2510    5.4800   16.5100 O.2   259  PHE259     -0.2867
    136  CB        29.9780    7.7210   14.7330 C.3   259  PHE259      0.0534
    137  CG        28.7140    8.1850   14.0470 C.ar  259  PHE259     -0.0203
    138  CD1       28.4450    9.5490   13.9000 C.ar  259  PHE259     -0.0042
    139  CD2       27.7980    7.2620   13.5470 C.ar  259  PHE259     -0.0042
    140  CE1       27.2760    9.9880   13.2710 C.ar  259  PHE259     -0.0003
    141  CE2       26.6210    7.6870   12.9140 C.ar  259  PHE259     -0.0003
    142  CZ        26.3600    9.0460   12.7690 C.ar  259  PHE259     -0.0000
@<TRIPOS>BOND
     1    72    71    2
     2    71    70    1
     3    70    69    1
     4    70    73    1
     5    73    74    1
     6    74    75    1
     7    75    76    1
     8    76    77    1
     9   107   106    1
    10    62    61    1
    11    62    63    2
    12   106   105   ar
    13   106   104   ar
    14    64    61    1
    15    64    65    1
    16    61    60    1
    17   105   103   ar
    18   104   102   ar
    19    65    66    1
    20   111   110    2
    21   103   101   ar
    22   102   101   ar
    23   110   109    1
    24    99    98    2
    25   101   100    1
    26    60    54   am
    27    55    54    2
    28    98    97    1
    29   100    97    1
    30   114   115    1
    31    66    67   ar
    32    66    68   ar
    33    54    53    1
    34   109   108    1
    35   109   112    1
    36    97    96    1
    37   112   113    1
    38   117   116    2
    39   120   119   ar
    40   115   116    1
    41   115   118    1
    42    53    52    1
    43    53    56    1
    44    96    93   am
    45   116   122   am
    46   119   121   ar
    47   119   118    1
    48    78    79    1
    49   125   124    2
    50    94    93    2
    51   124   123    1
    52    56    57    1
    53    93    92    1
    54   122   123    1
    55    84    85    1
    56    80    79    1
    57    80    81    2
    58   123   126    1
    59    79    82    1
    60    91    92    1
    61    91    86   am
    62    92    95    1
    63    83    82    1
    64    57    58    2
    65    57    59   am
    66    85    86    1
    67    85    88    1
    68    86    87    2
    69   126   127    1
    70   127   129   ar
    71   127   128   ar
    72    51    50    1
    73   129   131   ar
    74   128   130   ar
    75    88    90    1
    76    88    89    1
    77    20    18    1
    78   131   130   ar
    79    19    18    1
    80    50    48   ar
    81    50    49   ar
    82    18    17    1
    83    16    15    2
    84    48    46   ar
    85    17    14    1
    86    49    47   ar
    87   142   141   ar
    88   142   140   ar
    89   141   139   ar
    90    15    14    1
    91    14    13    1
    92   140   138   ar
    93   139   137   ar
    94    46    45   ar
    95   138   137   ar
    96    47    45   ar
    97   137   136    1
    98    45    44    1
    99   136   133    1
   100    35    37   ar
   101    35    34   ar
   102    37    39   ar
   103    33    34    1
   104    33    30    1
   105    34    36   ar
   106     4     3    2
   107    12    11    2
   108    39    38   ar
   109    10    11    1
   110    10     9    1
   111    32    31    2
   112    36    38   ar
   113    44    41    1
   114     5     6    1
   115     5     2    1
   116     3     9   am
   117     3     2    1
   118   133   134    1
   119   133   132    1
   120    31    30    1
   121    31    40   am
   122     7     6    2
   123   135   134    2
   124    30    29    1
   125     6     8   am
   126    40    41    1
   127    41    42    1
   128     2     1    1
   129    42    43    2
   130    28    26    1
   131    26    27    1
   132    26    25    1
   133    24    23    2
   134    25    22    1
   135    23    22    1
   136    22    21    1
