@<TRIPOS>MOLECULE
tmp/2i2xL00.pdb
 180 173 0 0 0
SMALL
GASTEIGER

@<TRIPOS>ATOM
      1  N         72.0170   53.1150   89.2480 N.3   133  GLY133     -0.1210
      2  CA        70.6390   52.8120   88.8650 C.3   133  GLY133      0.1956
      3  C         70.3060   53.4070   87.5040 C.2   133  GLY133      0.2612
      4  O         69.2730   53.0790   86.9110 O.2   133  GLY133     -0.2717
      5  N         71.2000   54.2670   87.0050 N.am  134  ASP134     -0.1959
      6  CA        70.9580   55.0430   85.7860 C.3   134  ASP134      0.1840
      7  C         71.8260   54.6000   84.5970 C.2   134  ASP134      0.2622
      8  O         73.0580   54.4950   84.6990 O.2   134  ASP134     -0.2715
      9  CB        71.1410   56.5450   86.0630 C.3   134  ASP134      0.1450
     10  CG        70.1920   57.4230   85.2470 C.2   134  ASP134      0.3671
     11  OD1       70.0160   57.1670   84.0390 O.co2 134  ASP134     -0.2456
     12  OD2       69.6330   58.3850   85.8180 O.co2 134  ASP134     -0.2456
     13  N         71.1540   54.3610   83.4730 N.am  135  VAL135     -0.1963
     14  CA        71.7860   53.9180   82.2280 C.3   135  VAL135      0.1727
     15  C         71.6840   54.9910   81.0990 C.2   135  VAL135      0.2616
     16  O         71.9100   54.7000   79.9120 O.2   135  VAL135     -0.2715
     17  CB        71.2780   52.4640   81.8510 C.3   135  VAL135      0.0290
     18  CG1       70.7370   52.3370   80.4110 C.3   135  VAL135      0.0023
     19  CG2       72.3530   51.4170   82.1740 C.3   135  VAL135      0.0023
     20  N         71.3750   56.2330   81.4930 N.am  136  HIS136     -0.1959
     21  CA        71.3130   57.3600   80.5680 C.3   136  HIS136      0.1787
     22  C         72.7130   57.9920   80.3880 C.2   136  HIS136      0.2620
     23  O         73.1740   58.7730   81.2250 O.2   136  HIS136     -0.2715
     24  CB        70.2590   58.3970   81.0100 C.3   136  HIS136      0.0785
     25  CG        68.8690   57.8430   81.1930 C.ar  136  HIS136      0.0821
     26  ND1       68.3850   57.4210   82.4150 N.ar  136  HIS136     -0.2267
     27  CD2       67.8460   57.6870   80.3190 C.ar  136  HIS136      0.1154
     28  CE1       67.1360   57.0090   82.2810 C.ar  136  HIS136      0.1986
     29  NE2       66.7850   57.1590   81.0180 N.ar  136  HIS136     -0.2212
     30  N         73.3660   57.6220   79.2780 N.am  137  ASP137     -0.1957
     31  CA        74.7370   58.0160   78.9080 C.3   137  ASP137      0.1840
     32  C         74.7700   59.3980   78.3160 C.2   137  ASP137      0.2622
     33  O         75.5600   60.2460   78.7230 O.2   137  ASP137     -0.2715
     34  CB        75.2720   57.1120   77.7920 C.3   137  ASP137      0.1450
     35  CG        75.7300   55.7750   78.2820 C.2   137  ASP137      0.3671
     36  OD1       76.7710   55.7150   78.9800 O.co2 137  ASP137     -0.2456
     37  OD2       75.0680   54.7720   77.9370 O.co2 137  ASP137     -0.2456
     38  N         73.9130   59.5870   77.3170 N.am  138  ILE138     -0.1963
     39  CA        73.9720   60.7070   76.3810 C.3   138  ILE138      0.1727
     40  C         74.3140   62.0610   77.0080 C.2   138  ILE138      0.2616
     41  O         75.1520   62.7960   76.4750 O.2   138  ILE138     -0.2715
     42  CB        72.6800   60.7630   75.5360 C.3   138  ILE138      0.0290
     43  CG1       72.5520   59.4680   74.7330 C.3   138  ILE138      0.0022
     44  CG2       72.6610   61.9980   74.6100 C.3   138  ILE138      0.0023
     45  CD1       71.2040   59.2560   74.1340 C.3   138  ILE138      0.0001
     46  N         73.6820   62.3780   78.1360 N.am  139  GLY139     -0.1955
     47  CA        73.9840   63.6040   78.8810 C.3   139  GLY139      0.1869
     48  C         75.4210   63.6870   79.3700 C.2   139  GLY139      0.2309
     49  O         76.0900   64.7110   79.1670 O.2   139  GLY139     -0.2863
     50  N         77.8750   63.9490   76.3240 N.3   142  ILE142     -0.1231
     51  CA        78.0460   65.2930   75.7970 C.3   142  ILE142      0.1692
     52  C         78.9730   66.0800   76.7270 C.2   142  ILE142      0.2591
     53  O         79.9410   66.6670   76.2540 O.2   142  ILE142     -0.2718
     54  CB        76.6960   66.0110   75.5140 C.3   142  ILE142      0.0266
     55  CG1       75.8900   65.2190   74.4800 C.3   142  ILE142      0.0019
     56  CG2       76.9260   67.4360   75.0040 C.3   142  ILE142      0.0020
     57  CD1       74.3880   65.5140   74.5000 C.3   142  ILE142      0.0001
     58  N         78.7050   66.0570   78.0360 N.am  143  VAL143     -0.1980
     59  CA        79.5890   66.7000   79.0240 C.3   143  VAL143      0.1595
     60  C         81.0490   66.2530   78.8440 C.2   143  VAL143      0.2287
     61  O         81.9550   67.0820   78.8470 O.2   143  VAL143     -0.2864
     62  CB        79.1040   66.4760   80.4910 C.3   143  VAL143      0.0276
     63  CG1       80.2240   66.7280   81.5070 C.3   143  VAL143      0.0022
     64  CG2       77.9330   67.3660   80.7920 C.3   143  VAL143      0.0022
     65  N         81.8370   65.6900   87.9820 N.3   179  THR179     -0.1203
     66  CA        80.4640   65.7960   87.4730 C.3   179  THR179      0.1994
     67  C         79.6490   64.5340   87.7570 C.2   179  THR179      0.2618
     68  O         80.2000   63.4490   87.9500 O.2   179  THR179     -0.2717
     69  CB        80.3730   66.1390   85.9640 C.3   179  THR179      0.1784
     70  OG1       80.5240   64.9500   85.1850 O.3   179  THR179     -0.2211
     71  CG2       81.4210   67.1560   85.5640 C.3   179  THR179      0.0376
     72  N         78.3290   64.7080   87.7920 N.am  180  GLY180     -0.1942
     73  CA        77.3780   63.6030   87.9090 C.3   180  GLY180      0.2014
     74  C         76.1380   63.8950   87.0860 C.2   180  GLY180      0.2639
     75  O         75.7450   65.0560   86.9540 O.2   180  GLY180     -0.2714
     76  N         75.5290   62.8440   86.5340 N.am  181  THR181     -0.1950
     77  CA        74.3110   62.9620   85.7230 C.3   181  THR181      0.1897
     78  C         73.2210   62.0010   86.2060 C.2   181  THR181      0.2313
     79  O         73.4620   60.8040   86.3660 O.2   181  THR181     -0.2863
     80  CB        74.5900   62.6920   84.2220 C.3   181  THR181      0.1794
     81  OG1       75.5810   63.6040   83.7420 O.3   181  THR181     -0.2208
     82  CG2       73.3240   62.8500   83.3900 C.3   181  THR181      0.0378
     83  N         68.8800   61.0770   85.5770 N.3   183  LEU183     -0.1231
     84  CA        67.7020   61.2660   84.7180 C.3   183  LEU183      0.1693
     85  C         66.3960   60.6410   85.2130 C.2   183  LEU183      0.2592
     86  O         65.3290   60.8480   84.6190 O.2   183  LEU183     -0.2718
     87  CB        67.9840   60.7760   83.3030 C.3   183  LEU183      0.0284
     88  CG        68.5830   61.8800   82.4460 C.3   183  LEU183      0.0019
     89  CD1       70.0760   61.7160   82.4340 C.3   183  LEU183      0.0001
     90  CD2       67.9920   61.8230   81.0470 C.3   183  LEU183      0.0001
     91  N         66.4810   59.8840   86.2990 N.am  184  MET184     -0.1965
     92  CA        65.3050   59.2930   86.9010 C.3   184  MET184      0.1736
     93  C         65.1360   59.8290   88.3140 C.2   184  MET184      0.2617
     94  O         66.1150   60.2230   88.9350 O.2   184  MET184     -0.2715
     95  CB        65.4290   57.7780   86.8770 C.3   184  MET184      0.0427
     96  CG        65.5710   57.2140   85.4650 C.3   184  MET184      0.0599
     97  SD        65.3830   55.4240   85.3700 S.3   184  MET184     -0.1393
     98  CE        63.6790   55.2070   85.9090 C.3   184  MET184      0.0692
     99  N         63.8950   59.8910   88.8010 N.am  185  THR185     -0.1937
    100  CA        63.6260   60.2880   90.1960 C.3   185  THR185      0.2028
    101  C         63.9880   59.1290   91.1290 C.2   185  THR185      0.2642
    102  O         64.2250   59.3030   92.3310 O.2   185  THR185     -0.2714
    103  CB        62.1520   60.6740   90.4220 C.3   185  THR185      0.1808
    104  OG1       61.3060   59.6240   89.9410 O.3   185  THR185     -0.2208
    105  CG2       61.8090   61.9870   89.7150 C.3   185  THR185      0.0379
    106  N         64.0310   57.9460   90.5310 N.am  186  THR186     -0.1950
    107  CA        64.4220   56.7200   91.1830 C.3   186  THR186      0.1897
    108  C         65.9490   56.6770   91.3810 C.2   186  THR186      0.2313
    109  O         66.4700   55.7940   92.0680 O.2   186  THR186     -0.2863
    110  CB        63.8900   55.5090   90.3420 C.3   186  THR186      0.1794
    111  OG1       63.3280   54.5120   91.2040 O.3   186  THR186     -0.2208
    112  CG2       64.9630   54.8930   89.4010 C.3   186  THR186      0.0378
    113  N         79.6970   69.0330   90.3210 N.3   208  ALA208     -0.1231
    114  CA        78.8010   69.5670   89.2860 C.3   208  ALA208      0.1694
    115  C         77.7140   68.5690   88.8670 C.2   208  ALA208      0.2592
    116  O         77.9820   67.5850   88.1710 O.2   208  ALA208     -0.2718
    117  CB        79.6040   70.0440   88.0750 C.3   208  ALA208      0.0304
    118  N         76.4850   68.8430   89.3000 N.am  209  CYS209     -0.1956
    119  CA        75.3590   67.9290   89.1190 C.3   209  CYS209      0.1843
    120  C         74.4350   68.4020   88.0010 C.2   209  CYS209      0.2626
    121  O         74.1130   69.5880   87.9160 O.2   209  CYS209     -0.2714
    122  CB        74.5780   67.7730   90.4330 C.3   209  CYS209      0.0997
    123  SG        75.4080   66.8050   91.7640 S.3   209  CYS209     -0.0797
    124  N         74.0230   67.4670   87.1490 N.am  210  GLY210     -0.1940
    125  CA        73.1390   67.7570   86.0200 C.3   210  GLY210      0.2014
    126  C         72.2710   66.5820   85.6010 C.2   210  GLY210      0.2639
    127  O         72.2740   65.5300   86.2470 O.2   210  GLY210     -0.2714
    128  N         71.5290   66.7620   84.5110 N.am  211  GLY211     -0.1939
    129  CA        70.6030   65.7370   84.0340 C.3   211  GLY211      0.2014
    130  C         69.1550   66.1820   84.1530 C.2   211  GLY211      0.2639
    131  O         68.8080   66.9600   85.0490 O.2   211  GLY211     -0.2714
    132  N         68.3110   65.6690   83.2570 N.am  212  GLY212     -0.1939
    133  CA        66.8960   66.0510   83.1480 C.3   212  GLY212      0.2014
    134  C         66.0400   65.9140   84.3960 C.2   212  GLY212      0.2638
    135  O         65.0310   66.6030   84.5220 O.2   212  GLY212     -0.2714
    136  N         66.4330   65.0320   85.3180 N.am  213  ALA213     -0.1977
    137  CA        65.7150   64.8470   86.5910 C.3   213  ALA213      0.1597
    138  C         66.1560   65.8370   87.6620 C.2   213  ALA213      0.2287
    139  O         65.5420   65.9440   88.7190 O.2   213  ALA213     -0.2864
    140  CB        65.8930   63.4270   87.1030 C.3   213  ALA213      0.0319
    141  N         74.7680   72.6830   86.8850 N.3   228  GLY228     -0.1210
    142  CA        74.7780   73.0910   85.4800 C.3   228  GLY228      0.1956
    143  C         73.5890   72.4560   84.7870 C.2   228  GLY228      0.2612
    144  O         73.2470   71.3020   85.0750 O.2   228  GLY228     -0.2717
    145  N         72.9490   73.1920   83.8810 N.am  229  GLU229     -0.1965
    146  CA        71.7500   72.6710   83.2140 C.3   229  GLU229      0.1733
    147  C         71.9220   72.3050   81.7350 C.2   229  GLU229      0.2616
    148  O         71.2620   71.3950   81.2400 O.2   229  GLU229     -0.2715
    149  CB        70.5350   73.5770   83.4350 C.3   229  GLU229      0.0429
    150  CG        70.5880   74.9480   82.7990 C.3   229  GLU229      0.1163
    151  CD        69.1960   75.5160   82.5920 C.2   229  GLU229      0.3649
    152  OE1       68.2770   75.1360   83.3500 O.co2 229  GLU229     -0.2457
    153  OE2       69.0170   76.3350   81.6670 O.co2 229  GLU229     -0.2457
    154  N         72.7880   73.0320   81.0370 N.am  230  GLU230     -0.1963
    155  CA        73.2330   72.6290   79.7080 C.3   230  GLU230      0.1733
    156  C         74.5840   71.9270   79.8680 C.2   230  GLU230      0.2616
    157  O         75.2950   72.1690   80.8430 O.2   230  GLU230     -0.2715
    158  CB        73.3570   73.8570   78.7990 C.3   230  GLU230      0.0429
    159  CG        73.4860   73.5600   77.2910 C.3   230  GLU230      0.1163
    160  CD        72.1400   73.4310   76.5670 C.2   230  GLU230      0.3649
    161  OE1       71.1180   73.1340   77.2290 O.co2 230  GLU230     -0.2457
    162  OE2       72.1090   73.6230   75.3260 O.co2 230  GLU230     -0.2457
    163  N         74.9280   71.0450   78.9300 N.am  231  ALA231     -0.1977
    164  CA        76.2290   70.3730   78.9460 C.3   231  ALA231      0.1597
    165  C         77.3490   71.3410   78.5800 C.2   231  ALA231      0.2287
    166  O         78.5230   71.0560   78.8130 O.2   231  ALA231     -0.2864
    167  CB        76.2290   69.1930   78.0100 C.3   231  ALA231      0.0319
    168  N         79.3660   72.9320   81.5400 N.3   234  ALA234     -0.1245
    169  CA        80.3080   72.0440   82.2420 C.3   234  ALA234      0.1562
    170  C         81.7900   72.4770   82.1880 C.2   234  ALA234      0.2260
    171  O         82.4570   72.4920   83.2230 O.2   234  ALA234     -0.2867
    172  CB        80.1260   70.5860   81.7920 C.3   234  ALA234      0.0290
    173  N         82.1020   75.9120   84.0910 N.3   237  ILE237     -0.1245
    174  CA        82.1580   75.8150   85.5560 C.3   237  ILE237      0.1561
    175  C         83.5530   75.4140   86.0830 C.2   237  ILE237      0.2260
    176  O         83.9230   75.7610   87.2110 O.2   237  ILE237     -0.2867
    177  CB        81.0250   74.8750   86.1240 C.3   237  ILE237      0.0252
    178  CG1       80.9840   74.8800   87.6550 C.3   237  ILE237      0.0019
    179  CG2       81.1740   73.4420   85.6420 C.3   237  ILE237      0.0019
    180  CD1       80.1260   75.9580   88.2380 C.3   237  ILE237      0.0001
@<TRIPOS>BOND
     1    45    43    1
     2    55    57    1
     3    55    54    1
     4    44    42    1
     5    43    42    1
     6    56    54    1
     7   162   160   ar
     8    54    51    1
     9    42    39    1
    10    51    50    1
    11    51    52    1
    12    53    52    2
    13    39    40    1
    14    39    38    1
    15    41    40    2
    16   160   161   ar
    17   160   159    1
    18    52    58   am
    19    40    46   am
    20   159   158    1
    21    38    32   am
    22    34    35    1
    23    34    31    1
    24    37    35   ar
    25   167   164    1
    26    58    59    1
    27    46    47    1
    28    35    36   ar
    29    32    33    2
    30    32    31    1
    31   165   166    2
    32   165   164    1
    33   158   155    1
    34    60    61    2
    35    60    59    1
    36    47    48    1
    37    31    30    1
    38   163   164    1
    39   163   156   am
    40    59    62    1
    41    49    48    2
    42    30    22   am
    43   155   156    1
    44   155   154    1
    45   156   157    2
    46    16    15    2
    47    27    29   ar
    48    27    25   ar
    49    22    21    1
    50    22    23    2
    51    18    17    1
    52    62    64    1
    53    62    63    1
    54    21    24    1
    55    21    20    1
    56    24    25    1
    57    29    28   ar
    58   154   147   am
    59    90    88    1
    60    15    20   am
    61    15    14    1
    62    25    26   ar
    63   148   147    2
    64   168   169    1
    65   153   151   ar
    66   147   146    1
    67   172   169    1
    68    17    19    1
    69    17    14    1
    70   170   169    1
    71   170   171    2
    72    14    13    1
    73    28    26   ar
    74    89    88    1
    75    88    87    1
    76   151   150    1
    77   151   152   ar
    78   150   149    1
    79   133   132    1
    80   133   134    1
    81   146   149    1
    82   146   145    1
    83   132   130   am
    84    87    84    1
    85    82    80    1
    86    13     7   am
    87    81    80    1
    88   145   143   am
    89   129   130    1
    90   129   128    1
    91    11    10   ar
    92   173   174    1
    93   130   131    2
    94    80    77    1
    95   134   135    2
    96   134   136   am
    97   128   126   am
    98     7     8    2
    99     7     6    1
   100    86    85    2
   101    84    85    1
   102    84    83    1
   103   143   144    2
   104   143   142    1
   105    70    69    1
   106    85    91   am
   107    10    12   ar
   108    10     9    1
   109   136   137    1
   110    97    96    1
   111    97    98    1
   112    96    95    1
   113   142   141    1
   114   174   175    1
   115   174   177    1
   116    71    69    1
   117   126   125    1
   118   126   127    2
   119   179   177    1
   120    77    78    1
   121    77    76    1
   122     6     9    1
   123     6     5    1
   124    69    66    1
   125   125   124    1
   126   175   176    2
   127   177   178    1
   128    78    79    2
   129    91    92    1
   130    76    74   am
   131   137   140    1
   132   137   138    1
   133    95    92    1
   134    92    93    1
   135     4     3    2
   136    75    74    2
   137     5     3   am
   138    74    73    1
   139   124   120   am
   140    66    67    1
   141    66    65    1
   142     3     2    1
   143   178   180    1
   144   138   139    2
   145    67    72   am
   146    67    68    2
   147    72    73    1
   148   121   120    2
   149   120   119    1
   150   117   114    1
   151   116   115    2
   152    93    99   am
   153    93    94    2
   154    99   100    1
   155     2     1    1
   156   115   114    1
   157   115   118   am
   158   119   118    1
   159   119   122    1
   160   114   113    1
   161   112   110    1
   162   105   103    1
   163   104   103    1
   164   100   103    1
   165   100   101    1
   166   110   107    1
   167   110   111    1
   168   122   123    1
   169   106   101   am
   170   106   107    1
   171   101   102    2
   172   107   108    1
   173   108   109    2
