@<TRIPOS>MOLECULE
tmp/2i2xD00.pdb
 192 186 0 0 0
SMALL
GASTEIGER

@<TRIPOS>ATOM
      1  N         -7.3480  117.3100   71.9070 N.3    88  TYR88      -0.1241
      2  CA        -6.6300  117.5460   70.6860 C.3    88  TYR88       0.1605
      3  C         -5.2040  118.0370   70.9340 C.2    88  TYR88       0.2264
      4  O         -4.2650  117.6160   70.2300 O.2    88  TYR88      -0.2867
      5  CB        -7.3880  118.5120   69.7890 C.3    88  TYR88       0.0534
      6  CG        -6.7130  118.7890   68.4680 C.ar   88  TYR88      -0.0201
      7  CD1       -6.3770  117.7570   67.6000 C.ar   88  TYR88      -0.0009
      8  CD2       -6.4170  120.0920   68.0830 C.ar   88  TYR88      -0.0009
      9  CE1       -5.7600  118.0170   66.3820 C.ar   88  TYR88       0.0417
     10  CE2       -5.8010  120.3660   66.8690 C.ar   88  TYR88       0.0417
     11  CZ        -5.4810  119.3240   66.0250 C.ar   88  TYR88       0.1957
     12  OH        -4.8820  119.5980   64.8210 O.3    88  TYR88      -0.2866
     13  N         -4.8650  134.2680   44.5350 N.3   133  GLY133     -0.1210
     14  CA        -4.1490  133.3960   43.5960 C.3   133  GLY133      0.1956
     15  C         -4.0320  131.9740   44.1280 C.2   133  GLY133      0.2612
     16  O         -3.6150  131.0570   43.4030 O.2   133  GLY133     -0.2717
     17  N         -4.4210  131.8010   45.3920 N.am  134  ASP134     -0.1959
     18  CA        -4.2520  130.5550   46.1080 C.3   134  ASP134      0.1840
     19  C         -5.5940  129.9110   46.4730 C.2   134  ASP134      0.2622
     20  O         -6.4250  130.5110   47.1750 O.2   134  ASP134     -0.2715
     21  CB        -3.4330  130.8190   47.3750 C.3   134  ASP134      0.1450
     22  CG        -2.7040  129.5870   47.8760 C.2   134  ASP134      0.3671
     23  OD1       -3.2910  128.4910   47.8520 O.co2 134  ASP134     -0.2456
     24  OD2       -1.5410  129.7210   48.3050 O.co2 134  ASP134     -0.2456
     25  N         -5.7740  128.6790   46.0060 N.am  135  VAL135     -0.1963
     26  CA        -6.9630  127.8710   46.2760 C.3   135  VAL135      0.1727
     27  C         -6.8260  127.0240   47.5560 C.2   135  VAL135      0.2616
     28  O         -7.7990  126.4100   48.0040 O.2   135  VAL135     -0.2715
     29  CB        -7.2840  126.9590   45.0370 C.3   135  VAL135      0.0290
     30  CG1       -8.1930  125.7580   45.3820 C.3   135  VAL135      0.0023
     31  CG2       -7.8710  127.7840   43.9020 C.3   135  VAL135      0.0023
     32  N         -5.6330  126.9960   48.1500 N.am  136  HIS136     -0.1959
     33  CA        -5.3740  126.0990   49.2890 C.3   136  HIS136      0.1787
     34  C         -6.1450  126.5050   50.5610 C.2   136  HIS136      0.2620
     35  O         -5.7740  127.4470   51.2660 O.2   136  HIS136     -0.2715
     36  CB        -3.8660  125.9150   49.5320 C.3   136  HIS136      0.0785
     37  CG        -3.1130  125.3660   48.3500 C.ar  136  HIS136      0.0821
     38  ND1       -2.7430  126.1420   47.2710 N.ar  136  HIS136     -0.2267
     39  CD2       -2.6420  124.1220   48.0910 C.ar  136  HIS136      0.1154
     40  CE1       -2.0880  125.4000   46.3970 C.ar  136  HIS136      0.1986
     41  NE2       -2.0160  124.1700   46.8680 N.ar  136  HIS136     -0.2212
     42  N         -7.2210  125.7530   50.8040 N.am  137  ASP137     -0.1957
     43  CA        -8.2970  126.0200   51.7760 C.3   137  ASP137      0.1840
     44  C         -7.9890  125.4570   53.1320 C.2   137  ASP137      0.2622
     45  O         -8.3300  126.0550   54.1530 O.2   137  ASP137     -0.2715
     46  CB        -9.5540  125.2270   51.3630 C.3   137  ASP137      0.1450
     47  CG       -10.5320  126.0300   50.5820 C.2   137  ASP137      0.3671
     48  OD1      -11.1000  126.9790   51.1520 O.co2 137  ASP137     -0.2456
     49  OD2      -10.7790  125.6840   49.4030 O.co2 137  ASP137     -0.2456
     50  N         -7.4220  124.2510   53.1160 N.am  138  ILE138     -0.1963
     51  CA        -7.4460  123.3620   54.2620 C.3   138  ILE138      0.1727
     52  C         -6.9040  124.0170   55.5100 C.2   138  ILE138      0.2616
     53  O         -7.6010  124.0850   56.5240 O.2   138  ILE138     -0.2715
     54  CB        -6.6920  122.0470   53.9860 C.3   138  ILE138      0.0290
     55  CG1       -7.4220  121.2400   52.9210 C.3   138  ILE138      0.0022
     56  CG2       -6.5660  121.2070   55.2490 C.3   138  ILE138      0.0023
     57  CD1       -6.6070  120.0830   52.3890 C.3   138  ILE138      0.0001
     58  N         -5.6680  124.5060   55.4290 N.am  139  GLY139     -0.1955
     59  CA        -5.0210  125.1800   56.5530 C.3   139  GLY139      0.1869
     60  C         -5.8140  126.3390   57.1220 C.2   139  GLY139      0.2309
     61  O         -5.8250  126.5470   58.3330 O.2   139  GLY139     -0.2863
     62  N         -8.7970  124.8600   59.0340 N.3   142  ILE142     -0.1231
     63  CA        -8.3800  124.3730   60.3230 C.3   142  ILE142      0.1692
     64  C         -8.0810  125.5610   61.2320 C.2   142  ILE142      0.2591
     65  O         -8.1920  125.4370   62.4460 O.2   142  ILE142     -0.2718
     66  CB        -7.1960  123.3830   60.2220 C.3   142  ILE142      0.0266
     67  CG1       -7.5300  122.2460   59.2550 C.3   142  ILE142      0.0019
     68  CG2       -6.8610  122.7930   61.5720 C.3   142  ILE142      0.0020
     69  CD1       -6.3070  121.4580   58.8050 C.3   142  ILE142      0.0001
     70  N         -7.7350  126.7180   60.6650 N.am  143  VAL143     -0.1980
     71  CA        -7.5700  127.9310   61.4970 C.3   143  VAL143      0.1595
     72  C         -8.9510  128.4870   61.8700 C.2   143  VAL143      0.2287
     73  O         -9.1920  128.8740   63.0140 O.2   143  VAL143     -0.2864
     74  CB        -6.6530  129.0010   60.8430 C.3   143  VAL143      0.0276
     75  CG1       -6.6780  130.2920   61.6270 C.3   143  VAL143      0.0022
     76  CG2       -5.2220  128.4900   60.7650 C.3   143  VAL143      0.0022
     77  N         -6.0200  136.8790   59.9910 N.3   179  THR179     -0.1203
     78  CA        -5.1190  135.7890   59.5990 C.3   179  THR179      0.1994
     79  C         -4.9980  135.6710   58.0870 C.2   179  THR179      0.2618
     80  O         -5.9040  136.0450   57.3440 O.2   179  THR179     -0.2717
     81  CB        -5.5290  134.4130   60.1730 C.3   179  THR179      0.1784
     82  OG1       -6.7730  134.0080   59.6010 O.3   179  THR179     -0.2211
     83  CG2       -5.6420  134.4340   61.6970 C.3   179  THR179      0.0376
     84  N         -3.8550  135.1470   57.6530 N.am  180  GLY180     -0.1942
     85  CA        -3.5670  134.8860   56.2490 C.3   180  GLY180      0.2014
     86  C         -2.9200  133.5240   56.1120 C.2   180  GLY180      0.2639
     87  O         -2.2790  133.0420   57.0430 O.2   180  GLY180     -0.2714
     88  N         -3.1130  132.9070   54.9470 N.am  181  THR181     -0.1950
     89  CA        -2.5330  131.6150   54.6100 C.3   181  THR181      0.1897
     90  C         -2.0640  131.6270   53.1550 C.2   181  THR181      0.2313
     91  O         -2.8580  131.9120   52.2430 O.2   181  THR181     -0.2863
     92  CB        -3.5610  130.4750   54.7870 C.3   181  THR181      0.1794
     93  OG1       -3.8390  130.2920   56.1740 O.3   181  THR181     -0.2208
     94  CG2       -3.0400  129.1650   54.2340 C.3   181  THR181      0.0378
     95  N          0.3400  129.1310   50.3130 N.3   183  LEU183     -0.1231
     96  CA         0.9470  127.8290   50.0600 C.3   183  LEU183      0.1693
     97  C          1.8520  127.7310   48.8220 C.2   183  LEU183      0.2595
     98  O          2.6150  126.7680   48.6870 O.2   183  LEU183     -0.2718
     99  CB        -0.1190  126.7270   50.0370 C.3   183  LEU183      0.0284
    100  CG        -0.1740  126.0630   51.4150 C.3   183  LEU183      0.0019
    101  CD1       -1.2650  126.6690   52.2870 C.3   183  LEU183      0.0001
    102  CD2       -0.3280  124.5770   51.2960 C.3   183  LEU183      0.0001
    103  N          1.7720  128.7200   47.9310 N.am  184  MET184     -0.1920
    104  CA         2.5930  128.7640   46.7110 C.3   184  MET184      0.1952
    105  C          3.5780  129.9470   46.7840 C.2   184  MET184      0.2660
    106  O          3.2460  130.9930   47.3340 O.2   184  MET184     -0.2711
    107  CB         1.7020  128.8630   45.4600 C.2   184  MET184      0.0110
    108  CG         0.6680  127.7240   45.2970 C.2   184  MET184      0.0285
    109  SD        -0.1570  127.5110   43.6810 S.3   184  MET184     -0.1125
    110  CE         1.2130  127.3830   42.5300 C.3   184  MET184      0.0742
    111  N          4.7950  129.7740   46.2670 N.am  185  THR185     -0.1934
    112  CA         5.7580  130.8900   46.1860 C.3   185  THR185      0.2028
    113  C          5.1820  132.0080   45.3160 C.2   185  THR185      0.2642
    114  O          5.4800  133.1840   45.4960 O.2   185  THR185     -0.2714
    115  CB         7.1410  130.4520   45.6360 C.3   185  THR185      0.1808
    116  OG1        6.9790  129.8150   44.3710 O.3   185  THR185     -0.2208
    117  CG2        7.8190  129.4960   46.5880 C.3   185  THR185      0.0379
    118  N          4.3190  131.5960   44.3950 N.am  186  THR186     -0.1950
    119  CA         3.6540  132.4510   43.4270 C.3   186  THR186      0.1897
    120  C          2.5290  133.2870   44.0720 C.2   186  THR186      0.2313
    121  O          1.7850  133.9830   43.3790 O.2   186  THR186     -0.2863
    122  CB         3.1370  131.5610   42.2440 C.3   186  THR186      0.1794
    123  OG1        3.0780  132.3280   41.0450 O.3   186  THR186     -0.2208
    124  CG2        1.7770  130.9430   42.5270 C.3   186  THR186      0.0378
    125  N         -1.6390  137.2780   61.9190 N.3   208  ALA208     -0.1231
    126  CA        -1.1760  135.9000   62.0230 C.3   208  ALA208      0.1694
    127  C         -1.0120  135.2320   60.6400 C.2   208  ALA208      0.2592
    128  O         -1.9920  134.8970   59.9650 O.2   208  ALA208     -0.2718
    129  CB        -2.1000  135.0960   62.9360 C.3   208  ALA208      0.0304
    130  N          0.2420  135.0640   60.2260 N.am  209  CYS209     -0.1956
    131  CA         0.5580  134.4680   58.9320 C.3   209  CYS209      0.1843
    132  C          1.0650  133.0390   59.0530 C.2   209  CYS209      0.2626
    133  O          1.8880  132.7210   59.9220 O.2   209  CYS209     -0.2714
    134  CB         1.5790  135.3160   58.1960 C.3   209  CYS209      0.0997
    135  SG         0.9430  136.9220   57.7820 S.3   209  CYS209     -0.0797
    136  N          0.5590  132.1870   58.1690 N.am  210  GLY210     -0.1940
    137  CA         0.8960  130.7770   58.1740 C.3   210  GLY210      0.2014
    138  C          0.7550  130.2240   56.7840 C.2   210  GLY210      0.2639
    139  O          0.4570  130.9570   55.8470 O.2   210  GLY210     -0.2714
    140  N          0.9620  128.9220   56.6550 N.am  211  GLY211     -0.1939
    141  CA         0.9100  128.2810   55.3620 C.3   211  GLY211      0.2014
    142  C          2.2260  127.6130   55.0480 C.2   211  GLY211      0.2639
    143  O          3.2810  128.0600   55.4910 O.2   211  GLY211     -0.2714
    144  N          2.1450  126.5320   54.2820 N.am  212  GLY212     -0.1939
    145  CA         3.3030  125.7470   53.8840 C.3   212  GLY212      0.2014
    146  C          4.4310  126.5530   53.2720 C.2   212  GLY212      0.2638
    147  O          5.5800  126.3780   53.6460 O.2   212  GLY212     -0.2714
    148  N          4.0980  127.4400   52.3380 N.am  213  ALA213     -0.1977
    149  CA         5.0790  128.2650   51.6420 C.3   213  ALA213      0.1597
    150  C          5.6520  129.3590   52.5290 C.2   213  ALA213      0.2287
    151  O          6.4090  130.1990   52.0560 O.2   213  ALA213     -0.2864
    152  CB         4.4540  128.8890   50.4070 C.3   213  ALA213      0.0319
    153  N          2.6550  131.7450   62.6620 N.3   228  GLY228     -0.1210
    154  CA         2.1710  130.5710   63.3710 C.3   228  GLY228      0.1956
    155  C          2.3530  129.3910   62.4400 C.2   228  GLY228      0.2612
    156  O          1.9230  129.4450   61.2880 O.2   228  GLY228     -0.2717
    157  N          3.0050  128.3320   62.9080 N.am  229  GLU229     -0.1965
    158  CA         3.1560  127.1660   62.0530 C.3   229  GLU229      0.1733
    159  C          2.0090  126.1880   62.2160 C.2   229  GLU229      0.2616
    160  O          1.4540  125.7320   61.2260 O.2   229  GLU229     -0.2715
    161  CB         4.5410  126.5100   62.1640 C.3   229  GLU229      0.0429
    162  CG         4.8570  125.7180   63.4180 C.3   229  GLU229      0.1163
    163  CD         6.2180  125.0560   63.3200 C.2   229  GLU229      0.3649
    164  OE1        7.2120  125.7770   63.0900 O.co2 229  GLU229     -0.2457
    165  OE2        6.2950  123.8170   63.4590 O.co2 229  GLU229     -0.2457
    166  N          1.6370  125.8780   63.4530 N.am  230  GLU230     -0.1963
    167  CA         0.4710  125.0220   63.6820 C.3   230  GLU230      0.1733
    168  C         -0.8140  125.8460   63.5930 C.2   230  GLU230      0.2616
    169  O         -0.8150  127.0380   63.8830 O.2   230  GLU230     -0.2715
    170  CB         0.5760  124.2790   65.0270 C.3   230  GLU230      0.0429
    171  CG        -0.2470  122.9640   65.1250 C.3   230  GLU230      0.1163
    172  CD         0.2130  121.8530   64.1530 C.2   230  GLU230      0.3649
    173  OE1        1.3920  121.8470   63.7230 O.co2 230  GLU230     -0.2457
    174  OE2       -0.6130  120.9700   63.8220 O.co2 230  GLU230     -0.2457
    175  N         -1.8970  125.2120   63.1590 N.am  231  ALA231     -0.1977
    176  CA        -3.1980  125.8580   63.1560 C.3   231  ALA231      0.1597
    177  C         -3.6340  126.0920   64.5950 C.2   231  ALA231      0.2287
    178  O         -4.3520  127.0390   64.8840 O.2   231  ALA231     -0.2864
    179  CB        -4.2060  125.0150   62.4220 C.3   231  ALA231      0.0319
    180  N         -1.9430  127.3280   66.6380 N.3   233  ASP233     -0.1225
    181  CA        -1.2520  128.5440   67.0430 C.3   233  ASP233      0.1805
    182  C         -2.1090  129.7910   66.8430 C.2   233  ASP233      0.2597
    183  O         -1.7910  130.8470   67.3850 O.2   233  ASP233     -0.2718
    184  CB         0.0870  128.6950   66.3040 C.3   233  ASP233      0.1424
    185  CG         1.1660  127.7590   66.8310 C.2   233  ASP233      0.3668
    186  OD1        1.0160  127.2320   67.9560 O.co2 233  ASP233     -0.2456
    187  OD2        2.1750  127.5600   66.1140 O.co2 233  ASP233     -0.2456
    188  N         -3.1900  129.6680   66.0720 N.am  234  ALA234     -0.1979
    189  CA        -4.0770  130.8070   65.7940 C.3   234  ALA234      0.1597
    190  C         -4.8880  131.2900   67.0080 C.2   234  ALA234      0.2287
    191  O         -4.9320  132.4900   67.2680 O.2   234  ALA234     -0.2864
    192  CB        -4.9890  130.5180   64.6020 C.3   234  ALA234      0.0319
@<TRIPOS>BOND
     1   123   122    1
     2   122   124    1
     3   122   119    1
     4   110   109    1
     5   121   120    2
     6    16    15    2
     7   119   120    1
     8   119   118    1
     9    14    15    1
    10    14    13    1
    11   109   108    1
    12    31    29    1
    13    15    17   am
    14   116   115    1
    15   118   113   am
    16    29    30    1
    17    29    26    1
    18   108   107    2
    19   113   114    2
    20   113   112    1
    21    17    18    1
    22   107   104    1
    23   115   112    1
    24   115   117    1
    25    25    26    1
    26    25    19   am
    27    18    19    1
    28    18    21    1
    29   112   111    1
    30   111   105   am
    31    26    27    1
    32    40    41   ar
    33    40    38   ar
    34    19    20    2
    35   104   105    1
    36   104   103    1
    37   105   106    2
    38    41    39   ar
    39    38    37   ar
    40    21    22    1
    41    27    28    2
    42    27    32   am
    43    23    22   ar
    44    22    24   ar
    45   103    97   am
    46    39    37   ar
    47    32    33    1
    48    37    36    1
    49    98    97    2
    50    97    96    1
    51    33    36    1
    52    33    34    1
    53    49    47   ar
    54    99    96    1
    55    99   100    1
    56    96    95    1
    57   152   149    1
    58    34    42   am
    59    34    35    2
    60    47    48   ar
    61    47    46    1
    62    42    43    1
    63   102   100    1
    64    46    43    1
    65   100   101    1
    66   149   148    1
    67   149   150    1
    68    43    44    1
    69   151   150    2
    70    91    90    2
    71   148   146   am
    72    57    55    1
    73    55    54    1
    74    50    44   am
    75    50    51    1
    76    44    45    2
    77    90    89    1
    78   146   147    2
    79   146   145    1
    80   145   144    1
    81    54    51    1
    82    54    56    1
    83    94    92    1
    84    51    52    1
    85   144   142   am
    86    89    92    1
    87    89    88    1
    88    92    93    1
    89    88    86   am
    90   142   141    1
    91   142   143    2
    92   141   140    1
    93    58    52   am
    94    58    59    1
    95    52    53    2
    96   139   138    2
    97    86    85    1
    98    86    87    2
    99    85    84    1
   100    59    60    1
   101   140   138   am
   102   138   137    1
   103    60    61    2
   104    80    79    2
   105    84    79   am
   106   135   134    1
   107    79    78    1
   108   136   137    1
   109   136   132   am
   110   134   131    1
   111    69    67    1
   112   131   132    1
   113   131   130    1
   114    62    63    1
   115   132   133    2
   116    67    66    1
   117    78    77    1
   118    78    81    1
   119    82    81    1
   120   128   127    2
   121    81    83    1
   122    66    63    1
   123    66    68    1
   124   130   127   am
   125    63    64    1
   126   127   126    1
   127    70    64   am
   128    70    71    1
   129    76    74    1
   130    74    71    1
   131    74    75    1
   132   160   159    2
   133    64    65    2
   134   156   155    2
   135    71    72    1
   136    72    73    2
   137   125   126    1
   138   126   129    1
   139   158   161    1
   140   158   159    1
   141   158   157    1
   142   161   162    1
   143   159   166   am
   144   179   176    1
   145   155   157   am
   146   155   154    1
   147   153   154    1
   148   164   163   ar
   149   176   175    1
   150   176   177    1
   151   175   168   am
   152   163   162    1
   153   163   165   ar
   154   166   167    1
   155   168   167    1
   156   168   169    2
   157   167   170    1
   158   173   172   ar
   159   174   172   ar
   160   172   171    1
   161   177   178    2
   162   192   189    1
   163    12    11    1
   164   170   171    1
   165   189   188    1
   166   189   190    1
   167    11     9   ar
   168    11    10   ar
   169   188   182   am
   170   187   185   ar
   171   184   185    1
   172   184   181    1
   173     9     7   ar
   174   180   181    1
   175   185   186   ar
   176   182   181    1
   177   182   183    2
   178    10     8   ar
   179   190   191    2
   180     7     6   ar
   181     8     6   ar
   182     6     5    1
   183     5     2    1
   184     4     3    2
   185     2     3    1
   186     2     1    1
