@<TRIPOS>MOLECULE
tmp/2i2xC00.pdb
 184 173 0 0 0
SMALL
GASTEIGER

@<TRIPOS>ATOM
      1  N          9.6700  123.2940   38.8250 N.3    44  ALA44      -0.1231
      2  CA         8.7690  124.4110   38.7950 C.3    44  ALA44       0.1679
      3  C          9.5850  125.6830   38.5420 C.2    44  ALA44       0.2434
      4  O         10.6630  125.8650   39.1300 O.2    44  ALA44      -0.2733
      5  CB         8.0240  124.5000   40.0740 C.3    44  ALA44       0.0304
      6  N          9.1040  126.5540   37.6410 N.am   45  PRO45      -0.2729
      7  CA         9.8450  127.7860   37.3770 C.3    45  PRO45       0.1401
      8  C          9.8050  128.7310   38.5750 C.2    45  PRO45       0.2269
      9  O          8.9220  128.6290   39.4060 O.2    45  PRO45      -0.2865
     10  CB         9.1240  128.3940   36.1570 C.3    45  PRO45       0.0296
     11  CG         7.7920  127.7780   36.0970 C.3    45  PRO45       0.0237
     12  CD         7.8790  126.4400   36.8210 C.3    45  PRO45       0.0939
     13  N          4.8580  120.2590   34.4220 N.3    84  GLU84      -0.1231
     14  CA         3.5400  120.5240   35.0340 C.3    84  GLU84       0.1699
     15  C          3.2170  121.9890   34.8270 C.2    84  GLU84       0.2592
     16  O          3.8780  122.8590   35.4100 O.2    84  GLU84      -0.2718
     17  CB         3.5010  120.2090   36.5330 C.3    84  GLU84       0.0402
     18  CG         3.7230  118.7550   36.8490 C.3    84  GLU84       0.1161
     19  CD         3.5520  118.4240   38.3200 C.2    84  GLU84       0.3649
     20  OE1        4.2730  118.9580   39.1870 O.co2  84  GLU84      -0.2457
     21  OE2        2.6920  117.5820   38.6310 O.co2  84  GLU84      -0.2457
     22  N          2.2070  122.2480   33.9890 N.am   85  HIS85      -0.1962
     23  CA         1.8010  123.6030   33.6340 C.3    85  HIS85       0.1787
     24  C          1.5180  124.4100   34.8710 C.2    85  HIS85       0.2620
     25  O          0.8720  123.9020   35.7910 O.2    85  HIS85      -0.2715
     26  CB         0.4990  123.5610   32.8420 C.3    85  HIS85       0.0785
     27  CG         0.6730  123.2710   31.3870 C.ar   85  HIS85       0.0821
     28  ND1       -0.2160  123.7190   30.4350 N.ar   85  HIS85      -0.2267
     29  CD2        1.6280  122.5840   30.7160 C.ar   85  HIS85       0.1154
     30  CE1        0.1870  123.3230   29.2400 C.ar   85  HIS85       0.1986
     31  NE2        1.2990  122.6280   29.3820 N.ar   85  HIS85      -0.2212
     32  N          1.9940  125.6550   34.8980 N.am   86  VAL86      -0.1963
     33  CA         1.3830  126.6850   35.7600 C.3    86  VAL86       0.1727
     34  C          0.0430  127.0880   35.1150 C.2    86  VAL86       0.2616
     35  O         -0.1410  126.8910   33.9140 O.2    86  VAL86      -0.2715
     36  CB         2.2860  127.9200   35.9470 C.3    86  VAL86       0.0290
     37  CG1        3.5310  127.5630   36.7950 C.3    86  VAL86       0.0023
     38  CG2        2.6590  128.5420   34.5880 C.3    86  VAL86       0.0023
     39  N         -0.8890  127.6380   35.8930 N.am   87  GLN87      -0.1977
     40  CA        -2.2480  127.8650   35.3730 C.3    87  GLN87       0.1601
     41  C         -2.2540  128.6830   34.0880 C.2    87  GLN87       0.2287
     42  O         -3.0950  128.4500   33.2120 O.2    87  GLN87      -0.2864
     43  CB        -3.1860  128.4870   36.4210 C.3    87  GLN87       0.0394
     44  CG        -2.6610  129.7880   37.1240 C.3    87  GLN87       0.0908
     45  CD        -2.8660  131.1200   36.3210 C.2    87  GLN87       0.2608
     46  OE1       -3.7270  131.2370   35.4240 O.2    87  GLN87      -0.2717
     47  NE2       -2.0550  132.1210   36.6650 N.am   87  GLN87      -0.0878
     48  N          1.6990  118.1440   31.4300 N.3   123  THR123     -0.1218
     49  CA         0.5840  117.8940   32.3120 C.3   123  THR123      0.1862
     50  C         -0.1920  119.2080   32.4380 C.2   123  THR123      0.2287
     51  O          0.2280  120.1460   33.1280 O.2   123  THR123     -0.2866
     52  CB         1.0920  117.4090   33.6900 C.3   123  THR123      0.1770
     53  OG1        1.8660  116.2270   33.5090 O.3   123  THR123     -0.2211
     54  CG2       -0.0740  117.1350   34.6570 C.3   123  THR123      0.0375
     55  N         -2.9860  121.8780   33.4350 N.3   125  GLY125     -0.1210
     56  CA        -3.7160  122.1940   34.6650 C.3   125  GLY125      0.1956
     57  C         -5.2080  121.9710   34.4430 C.2   125  GLY125      0.2611
     58  O         -5.7350  122.2000   33.3250 O.2   125  GLY125     -0.2717
     59  N         -5.8830  121.4870   35.4860 N.am  126  ASP126     -0.1973
     60  CA        -7.3260  121.3520   35.4400 C.3   126  ASP126      0.1709
     61  C         -7.8740  122.7030   35.8440 C.2   126  ASP126      0.2293
     62  O         -7.9200  123.0630   37.0040 O.2   126  ASP126     -0.2864
     63  CB        -7.8660  120.2020   36.3140 C.3   126  ASP126      0.1436
     64  CG        -9.3200  119.8430   35.9700 C.2   126  ASP126      0.3671
     65  OD1       -9.9580  120.6640   35.2420 O.co2 126  ASP126     -0.2456
     66  OD2       -9.8140  118.7670   36.4280 O.co2 126  ASP126     -0.2456
     67  N        -12.7030  125.5360   36.7880 N.3   129  GLU129     -0.1245
     68  CA       -13.1100  125.9980   38.1070 C.3   129  GLU129      0.1567
     69  C        -13.0070  127.5310   38.1490 C.2   129  GLU129      0.2260
     70  O        -12.1890  128.1220   37.4420 O.2   129  GLU129     -0.2867
     71  CB       -12.2320  125.3230   39.1740 C.3   129  GLU129      0.0388
     72  CG       -12.1260  125.9850   40.5380 C.3   129  GLU129      0.1160
     73  CD       -11.1870  125.2370   41.4950 C.2   129  GLU129      0.3649
     74  OE1      -10.0500  124.8690   41.0960 O.co2 129  GLU129     -0.2457
     75  OE2      -11.5890  125.0060   42.6630 O.co2 129  GLU129     -0.2457
     76  N         -3.9420  116.1600   36.3620 N.3   162  GLU162     -0.1245
     77  CA        -4.3950  115.7540   37.6860 C.3   162  GLU162      0.1567
     78  C         -5.7980  116.3420   37.8850 C.2   162  GLU162      0.2260
     79  O         -5.9470  117.4590   38.3920 O.2   162  GLU162     -0.2867
     80  CB        -3.4390  116.3050   38.7320 C.3   162  GLU162      0.0388
     81  CG        -2.0060  116.3740   38.2090 C.3   162  GLU162      0.1160
     82  CD        -0.9910  116.3370   39.3210 C.2   162  GLU162      0.3649
     83  OE1       -1.4070  116.2420   40.4690 O.co2 162  GLU162     -0.2457
     84  OE2        0.2200  116.4150   39.0640 O.co2 162  GLU162     -0.2457
     85  N         -9.8980  117.1650   38.8150 N.3   164  MET164     -0.1245
     86  CA       -10.4950  117.6080   40.0790 C.3   164  MET164      0.1570
     87  C        -11.8630  116.9980   40.4330 C.2   164  MET164      0.2261
     88  O        -12.4680  117.3890   41.4460 O.2   164  MET164     -0.2867
     89  CB       -10.6400  119.1310   40.0460 C.3   164  MET164      0.0387
     90  CG        -9.3210  119.8960   40.0720 C.3   164  MET164      0.0595
     91  SD        -9.6330  121.6680   40.0060 S.3   164  MET164     -0.1393
     92  CE       -10.5470  121.8760   38.4690 C.3   164  MET164      0.0692
     93  N        -13.4280  116.5380   43.9990 N.3   167  LYS167     -0.1245
     94  CA       -12.5820  117.2350   44.9320 C.3   167  LYS167      0.1561
     95  C        -13.3490  117.9720   46.0540 C.2   167  LYS167      0.2260
     96  O        -12.8860  118.0060   47.2080 O.2   167  LYS167     -0.2867
     97  CB       -11.6780  118.2080   44.1820 C.3   167  LYS167      0.0271
     98  CG       -10.7590  118.9880   45.0910 C.3   167  LYS167      0.0035
     99  CD        -9.7890  119.8770   44.3320 C.3   167  LYS167      0.0206
    100  CE       -10.4950  120.9680   43.5510 C.3   167  LYS167      0.1093
    101  NZ        -9.6800  122.2290   43.4440 N.3   167  LYS167     -0.1314
    102  N        -13.0640  117.2550   49.9840 N.3   171  ASP171     -0.1239
    103  CA       -12.5200  118.1990   50.9620 C.3   171  ASP171      0.1674
    104  C        -13.3140  118.3090   52.2630 C.2   171  ASP171      0.2266
    105  O        -12.7380  118.4490   53.3540 O.2   171  ASP171     -0.2867
    106  CB       -12.2590  119.5620   50.3140 C.3   171  ASP171      0.1410
    107  CG       -10.9670  119.5580   49.4850 C.2   171  ASP171      0.3668
    108  OD1      -10.0550  118.7530   49.8170 O.co2 171  ASP171     -0.2456
    109  OD2      -10.8620  120.3320   48.5070 O.co2 171  ASP171     -0.2456
    110  N         -4.3000  112.7390   42.8200 N.3   218  CYS218     -0.1221
    111  CA        -3.5500  113.6410   43.6760 C.3   218  CYS218      0.1808
    112  C         -4.4560  114.6020   44.4450 C.2   218  CYS218      0.2601
    113  O         -4.2280  114.8530   45.6250 O.2   218  CYS218     -0.2717
    114  CB        -2.5200  114.4370   42.8660 C.3   218  CYS218      0.0970
    115  SG        -1.2260  115.2380   43.9340 S.3   218  CYS218     -0.0800
    116  N         -5.5080  115.0910   43.7820 N.am  219  ALA219     -0.1979
    117  CA        -6.4320  116.0460   44.4010 C.3   219  ALA219      0.1597
    118  C         -7.2210  115.4670   45.5610 C.2   219  ALA219      0.2287
    119  O         -7.7930  116.2110   46.3530 O.2   219  ALA219     -0.2864
    120  CB        -7.3550  116.6910   43.3730 C.3   219  ALA219      0.0319
    121  N         -4.0040  114.3930   49.0190 N.3   223  THR223     -0.1218
    122  CA        -4.3840  115.3590   50.0500 C.3   223  THR223      0.1862
    123  C         -4.6000  114.6400   51.3770 C.2   223  THR223      0.2287
    124  O         -4.0820  115.0840   52.4050 O.2   223  THR223     -0.2866
    125  CB        -5.6410  116.0950   49.6730 C.3   223  THR223      0.1770
    126  OG1       -5.4490  116.7680   48.4240 O.3   223  THR223     -0.2211
    127  CG2       -6.0230  117.0970   50.7150 C.3   223  THR223      0.0375
    128  N         -1.2290  113.9260   52.7960 N.3   226  PHE226     -0.1227
    129  CA        -0.4660  115.0200   53.3810 C.3   226  PHE226      0.1736
    130  C         -1.0180  115.5390   54.7030 C.2   226  PHE226      0.2595
    131  O         -0.2300  115.9220   55.5920 O.2   226  PHE226     -0.2718
    132  CB        -0.2620  116.1590   52.4000 C.3   226  PHE226      0.0547
    133  CG         0.5050  115.7580   51.1870 C.ar  226  PHE226     -0.0202
    134  CD1        1.8740  115.5340   51.2560 C.ar  226  PHE226     -0.0042
    135  CD2       -0.1420  115.5830   49.9510 C.ar  226  PHE226     -0.0042
    136  CE1        2.5850  115.1310   50.1010 C.ar  226  PHE226     -0.0003
    137  CE2        0.5730  115.2020   48.7900 C.ar  226  PHE226     -0.0003
    138  CZ         1.9390  114.9820   48.8710 C.ar  226  PHE226     -0.0000
    139  N         -2.3520  115.5650   54.8100 N.am  227  ILE227     -0.1980
    140  CA        -3.0370  115.8980   56.0310 C.3   227  ILE227      0.1595
    141  C         -2.6170  114.8660   57.0620 C.2   227  ILE227      0.2287
    142  O         -2.3880  115.2010   58.2020 O.2   227  ILE227     -0.2864
    143  CB        -4.6110  115.8770   55.8510 C.3   227  ILE227      0.0276
    144  CG1       -5.0650  116.9230   54.8200 C.3   227  ILE227      0.0022
    145  CG2       -5.3330  116.1260   57.1770 C.3   227  ILE227      0.0022
    146  CD1       -6.5460  116.7620   54.3330 C.3   227  ILE227      0.0001
    147  N         -3.6380  114.7810   62.5400 N.3   235  ASN235     -0.1240
    148  CA        -4.6340  115.4210   61.7160 C.3   235  ASN235      0.1653
    149  C         -5.5110  114.4930   60.8580 C.2   235  ASN235      0.2266
    150  O         -6.5860  114.9040   60.3870 O.2   235  ASN235     -0.2867
    151  CB        -3.9790  116.4840   60.8490 C.3   235  ASN235      0.1155
    152  CG        -3.4680  117.6770   61.6690 C.2   235  ASN235      0.2627
    153  OD1       -4.0290  118.0180   62.7270 O.2   235  ASN235     -0.2716
    154  ND2       -2.4000  118.3130   61.1810 N.am  235  ASN235     -0.0877
    155  N          9.9490  117.4650   47.0040 N.3   292  ALA292     -0.1231
    156  CA         8.5430  117.9150   46.9590 C.3   292  ALA292      0.1694
    157  C          7.8000  117.6480   48.2400 C.2   292  ALA292      0.2592
    158  O          7.0320  118.5010   48.6820 O.2   292  ALA292     -0.2718
    159  CB         7.7990  117.3140   45.8060 C.3   292  ALA292      0.0304
    160  N          8.0040  116.4780   48.8480 N.am  293  HIS293     -0.1976
    161  CA         7.2900  116.1370   50.0780 C.3   293  HIS293      0.1656
    162  C          7.8280  114.8710   50.6960 C.2   293  HIS293      0.2291
    163  O          8.4420  114.0410   50.0280 O.2   293  HIS293     -0.2864
    164  CB         5.7760  115.9510   49.8050 C.3   293  HIS293      0.0771
    165  CG         5.4830  114.9980   48.6850 C.ar  293  HIS293      0.0820
    166  ND1        5.4070  113.6290   48.8660 N.ar  293  HIS293     -0.2267
    167  CD2        5.2580  115.2140   47.3660 C.ar  293  HIS293      0.1154
    168  CE1        5.1790  113.0420   47.7050 C.ar  293  HIS293      0.1986
    169  NE2        5.0760  113.9810   46.7800 N.ar  293  HIS293     -0.2212
    170  N          8.8640  114.3420   41.5040 N.3   311  GLU311     -0.1231
    171  CA         7.5900  115.0420   41.7700 C.3   311  GLU311      0.1699
    172  C          7.6210  116.4960   41.3550 C.2   311  GLU311      0.2592
    173  O          6.8540  116.9070   40.4910 O.2   311  GLU311     -0.2718
    174  CB         7.1440  114.9300   43.2390 C.3   311  GLU311      0.0402
    175  CG         5.9470  115.8460   43.6460 C.3   311  GLU311      0.1161
    176  CD         4.6900  115.6150   42.8140 C.2   311  GLU311      0.3649
    177  OE1        3.7300  116.4180   42.9060 O.co2 311  GLU311     -0.2457
    178  OE2        4.6310  114.6340   42.0450 O.co2 311  GLU311     -0.2457
    179  N          8.5150  117.2600   41.9740 N.am  312  SER312     -0.1952
    180  CA         8.6430  118.6920   41.7430 C.3   312  SER312      0.1924
    181  C          9.7590  119.2610   42.5940 C.2   312  SER312      0.2314
    182  O          9.9640  118.7940   43.7130 O.2   312  SER312     -0.2863
    183  CB         7.3530  119.4230   42.1590 C.3   312  SER312      0.2116
    184  OG         7.2580  120.6280   41.4290 O.3   312  SER312     -0.2180
@<TRIPOS>BOND
     1    30    31   ar
     2    30    28   ar
     3    31    29   ar
     4    28    27   ar
     5    29    27   ar
     6    27    26    1
     7    48    49    1
     8    49    50    1
     9    49    52    1
    10    50    51    2
    11    26    23    1
    12    42    41    2
    13    58    57    2
    14    55    56    1
    15    53    52    1
    16    23    22    1
    17    23    24    1
    18    52    54    1
    19    35    34    2
    20    22    15   am
    21    41    40    1
    22    13    14    1
    23    57    56    1
    24    57    59   am
    25    38    36    1
    26    15    14    1
    27    15    16    2
    28    24    32   am
    29    24    25    2
    30    32    33    1
    31    14    17    1
    32    34    33    1
    33    34    39   am
    34    65    64   ar
    35    40    39    1
    36    40    43    1
    37    46    45    2
    38    60    59    1
    39    60    61    1
    40    60    63    1
    41    33    36    1
    42    61    62    2
    43    36    37    1
    44    64    63    1
    45    64    66   ar
    46    11    10    1
    47    11    12    1
    48    10     7    1
    49    45    47   am
    50    45    44    1
    51    76    77    1
    52    43    44    1
    53    17    18    1
    54    67    68    1
    55    12     6    1
    56    18    19    1
    57     7     6    1
    58     7     8    1
    59    70    69    2
    60     6     3   am
    61    77    78    1
    62    77    80    1
    63    78    79    2
    64    68    69    1
    65    68    71    1
    66    81    80    1
    67    81    82    1
    68    19    21   ar
    69    19    20   ar
    70    92    91    1
    71     3     2    1
    72     3     4    2
    73     8     9    2
    74     2     1    1
    75     2     5    1
    76    85    86    1
    77    84    82   ar
    78    71    72    1
    79    82    83   ar
    80    91    90    1
    81    89    90    1
    82    89    86    1
    83    86    87    1
    84    87    88    2
    85   173   172    2
    86    72    73    1
    87    74    73   ar
    88   172   171    1
    89   172   179   am
    90   184   183    1
    91    73    75   ar
    92   170   171    1
    93   180   179    1
    94   180   183    1
    95   180   181    1
    96   171   174    1
    97   178   176   ar
    98   181   182    2
    99   176   177   ar
   100   176   175    1
   101   110   111    1
   102   114   111    1
   103   114   115    1
   104   174   175    1
   105   120   117    1
   106   101   100    1
   107   100    99    1
   108   111   112    1
   109   116   117    1
   110   116   112   am
   111    93    94    1
   112    97    94    1
   113    97    98    1
   114    99    98    1
   115   117   118    1
   116   112   113    2
   117    94    95    1
   118   118   119    2
   119   159   156    1
   120    95    96    2
   121   169   167   ar
   122   169   168   ar
   123   156   155    1
   124   156   157    1
   125   167   165   ar
   126   168   166   ar
   127   157   158    2
   128   157   160   am
   129   126   125    1
   130   109   107   ar
   131   165   166   ar
   132   165   164    1
   133   137   138   ar
   134   137   135   ar
   135   160   161    1
   136   138   136   ar
   137   121   122    1
   138   107   108   ar
   139   107   106    1
   140   125   122    1
   141   125   127    1
   142   164   161    1
   143   135   133   ar
   144   102   103    1
   145   163   162    2
   146   122   123    1
   147   161   162    1
   148   136   134   ar
   149   106   103    1
   150   103   104    1
   151   133   134   ar
   152   133   132    1
   153   123   124    2
   154   104   105    2
   155   132   129    1
   156   128   129    1
   157   129   130    1
   158   146   144    1
   159   130   139   am
   160   130   131    2
   161   139   140    1
   162   144   143    1
   163   143   140    1
   164   143   145    1
   165   140   141    1
   166   141   142    2
   167   150   149    2
   168   151   152    1
   169   151   148    1
   170   149   148    1
   171   154   152   am
   172   152   153    2
   173   148   147    1
