@<TRIPOS>MOLECULE
tmp/2i2xG00.pdb
 178 167 0 0 0
SMALL
GASTEIGER

@<TRIPOS>ATOM
      1  N         11.6320   16.8150   39.8470 N.3    44  ALA44      -0.1245
      2  CA        12.0680   15.6040   39.1460 C.3    44  ALA44       0.1562
      3  C         11.4790   14.3800   39.8420 C.2    44  ALA44       0.2260
      4  O         11.5910   14.2470   41.0630 O.2    44  ALA44      -0.2867
      5  CB        13.5870   15.5110   39.1100 C.3    44  ALA44       0.0290
      6  N          9.9690   19.4950   33.4570 N.3    84  GLU84      -0.1231
      7  CA        11.1150   19.1890   32.6190 C.3    84  GLU84       0.1699
      8  C         11.0280   17.7200   32.2860 C.2    84  GLU84       0.2592
      9  O         10.9510   16.8800   33.1840 O.2    84  GLU84      -0.2718
     10  CB        12.4350   19.5040   33.3200 C.3    84  GLU84       0.0402
     11  CG        12.7080   20.9950   33.4170 C.3    84  GLU84       0.1161
     12  CD        13.9560   21.3220   34.2130 C.2    84  GLU84       0.3649
     13  OE1       14.1550   20.7490   35.3090 O.co2  84  GLU84      -0.2457
     14  OE2       14.7480   22.1760   33.7460 O.co2  84  GLU84      -0.2457
     15  N         11.0160   17.4170   30.9920 N.am   85  HIS85      -0.1962
     16  CA        10.8890   16.0460   30.5260 C.3    85  HIS85       0.1787
     17  C         12.0830   15.2210   30.9630 C.2    85  HIS85       0.2620
     18  O         13.2300   15.6530   30.8330 O.2    85  HIS85      -0.2715
     19  CB        10.7740   16.0090   28.9960 C.3    85  HIS85       0.0785
     20  CG         9.4160   16.3680   28.4770 C.ar   85  HIS85       0.0821
     21  ND1        8.9510   15.9310   27.2550 N.ar   85  HIS85      -0.2267
     22  CD2        8.4180   17.1160   29.0120 C.ar   85  HIS85       0.1154
     23  CE1        7.7300   16.4010   27.0550 C.ar   85  HIS85       0.1986
     24  NE2        7.3780   17.1140   28.1110 N.ar   85  HIS85      -0.2212
     25  N         11.8130   14.0400   31.5050 N.am   86  VAL86      -0.1963
     26  CA        12.8440   13.0070   31.5230 C.3    86  VAL86       0.1727
     27  C         12.9710   12.5390   30.0640 C.2    86  VAL86       0.2616
     28  O         11.9910   12.6320   29.2970 O.2    86  VAL86      -0.2715
     29  CB        12.5290   11.8500   32.4940 C.3    86  VAL86       0.0290
     30  CG1       12.6790   12.3190   33.9540 C.3    86  VAL86       0.0023
     31  CG2       11.1440   11.2870   32.2460 C.3    86  VAL86       0.0023
     32  N         14.1670   12.0800   29.6720 N.am   87  GLN87      -0.1977
     33  CA        14.4720   11.8300   28.2520 C.3    87  GLN87       0.1601
     34  C         13.4790   10.9040   27.5450 C.2    87  GLN87       0.2287
     35  O         13.2430   11.0420   26.3350 O.2    87  GLN87      -0.2864
     36  CB        15.9480   11.4180   28.0180 C.3    87  GLN87       0.0394
     37  CG        16.4460   10.2040   28.8230 C.3    87  GLN87       0.0908
     38  CD        15.7940    8.8920   28.3820 C.2    87  GLN87       0.2608
     39  OE1       15.8690    8.5050   27.2120 O.2    87  GLN87      -0.2717
     40  NE2       15.1330    8.2150   29.3210 N.am   87  GLN87      -0.0878
     41  N         12.9150   17.8310   26.2830 N.3   125  GLY125     -0.1210
     42  CA        14.3420   17.5180   26.3510 C.3   125  GLY125      0.1956
     43  C         14.9490   17.5560   24.9640 C.2   125  GLY125      0.2611
     44  O         14.3280   17.1000   23.9950 O.2   125  GLY125     -0.2717
     45  N         16.1530   18.1120   24.8520 N.am  126  ASP126     -0.1973
     46  CA        16.8490   18.1280   23.5640 C.3   126  ASP126      0.1709
     47  C         17.4540   16.7510   23.2720 C.2   126  ASP126      0.2293
     48  O         18.6080   16.4640   23.6210 O.2   126  ASP126     -0.2864
     49  CB        17.9110   19.2290   23.5140 C.3   126  ASP126      0.1436
     50  CG        18.2570   19.6290   22.1020 C.2   126  ASP126      0.3671
     51  OD1       18.0730   18.7950   21.1920 O.co2 126  ASP126     -0.2456
     52  OD2       18.7070   20.7750   21.8980 O.co2 126  ASP126     -0.2456
     53  N         20.5610   13.7790   19.7090 N.3   129  GLU129     -0.1245
     54  CA        21.9120   13.3400   20.0500 C.3   129  GLU129      0.1567
     55  C         21.9640   11.8100   20.2080 C.2   129  GLU129      0.2260
     56  O         21.0090   11.2020   20.7080 O.2   129  GLU129     -0.2867
     57  CB        22.3650   14.0160   21.3580 C.3   129  GLU129      0.0388
     58  CG        23.8710   13.9720   21.6230 C.3   129  GLU129      0.1160
     59  CD        24.2830   14.5740   22.9760 C.2   129  GLU129      0.3649
     60  OE1       23.4530   14.6160   23.9230 O.co2 129  GLU129     -0.2457
     61  OE2       25.4630   14.9980   23.0930 O.co2 129  GLU129     -0.2457
     62  N         15.8560   23.3410   26.7820 N.3   162  GLU162     -0.1245
     63  CA        17.2590   23.7170   27.0100 C.3   162  GLU162      0.1567
     64  C         18.1140   23.0650   25.9250 C.2   162  GLU162      0.2260
     65  O         18.4480   21.8770   26.0110 O.2   162  GLU162     -0.2867
     66  CB        17.7010   23.2740   28.4000 C.3   162  GLU162      0.0388
     67  CG        16.7460   23.7350   29.4910 C.3   162  GLU162      0.1160
     68  CD        17.2430   23.4360   30.8870 C.2   162  GLU162      0.3649
     69  OE1       18.4560   23.2830   31.0740 O.co2 162  GLU162     -0.2457
     70  OE2       16.4200   23.3420   31.8140 O.co2 162  GLU162     -0.2457
     71  N         21.0390   22.5210   22.6020 N.3   164  MET164     -0.1245
     72  CA        22.4500   22.1070   22.6640 C.3   164  MET164      0.1570
     73  C         23.4190   22.6640   21.6080 C.2   164  MET164      0.2261
     74  O         24.5850   22.2650   21.5920 O.2   164  MET164     -0.2867
     75  CB        22.5320   20.5820   22.6290 C.3   164  MET164      0.0387
     76  CG        21.7230   19.8690   23.6900 C.3   164  MET164      0.0595
     77  SD        22.0050   18.0810   23.5850 S.3   164  MET164     -0.1393
     78  CE        21.4150   17.7700   21.9090 C.3   164  MET164      0.0692
     79  N         27.3160   22.9880   21.9090 N.3   167  LYS167     -0.1245
     80  CA        27.6260   22.2640   23.1420 C.3   167  LYS167      0.1561
     81  C         28.9930   21.6000   23.0520 C.2   167  LYS167      0.2260
     82  O         29.8290   21.7350   23.9490 O.2   167  LYS167     -0.2867
     83  CB        26.5510   21.2050   23.4320 C.3   167  LYS167      0.0271
     84  CG        26.7440   20.4700   24.7500 C.3   167  LYS167      0.0035
     85  CD        25.4610   19.8290   25.2270 C.3   167  LYS167      0.0206
     86  CE        25.4200   18.3460   24.9590 C.3   167  LYS167      0.1093
     87  NZ        26.2660   17.5850   25.9380 N.3   167  LYS167     -0.1314
     88  N         32.2400   22.6020   25.2970 N.3   171  ASP171     -0.1239
     89  CA        32.7970   21.6360   26.2490 C.3   171  ASP171      0.1674
     90  C         34.3260   21.5260   26.1430 C.2   171  ASP171      0.2266
     91  O         35.0170   21.4410   27.1650 O.2   171  ASP171     -0.2867
     92  CB        32.1280   20.2600   26.0840 C.3   171  ASP171      0.1410
     93  CG        30.7410   20.1790   26.7500 C.2   171  ASP171      0.3668
     94  OD1       30.3400   21.1080   27.4990 O.co2 171  ASP171     -0.2456
     95  OD2       30.0470   19.1650   26.5260 O.co2 171  ASP171     -0.2456
     96  N         21.7330   26.8620   29.2820 N.3   218  CYS218     -0.1221
     97  CA        22.1070   25.8860   30.3280 C.3   218  CYS218      0.1808
     98  C         23.2870   24.9590   29.9860 C.2   218  CYS218      0.2601
     99  O         24.0810   24.6030   30.8640 O.2   218  CYS218     -0.2717
    100  CB        20.8900   25.0350   30.7030 C.3   218  CYS218      0.0970
    101  SG        20.8780   24.4820   32.4240 S.3   218  CYS218     -0.0800
    102  N         23.3920   24.5880   28.7110 N.am  219  ALA219     -0.1979
    103  CA        24.3830   23.6260   28.2550 C.3   219  ALA219      0.1597
    104  C         25.7400   24.2830   28.0620 C.2   219  ALA219      0.2287
    105  O         26.7600   23.5940   27.9060 O.2   219  ALA219     -0.2864
    106  CB        23.9220   22.9470   26.9740 C.3   219  ALA219      0.0319
    107  N         25.6010   27.8880   32.0060 N.3   222  ASN222     -0.1225
    108  CA        25.3880   27.2840   33.3180 C.3   222  ASN222      0.1785
    109  C         26.4890   26.2890   33.6550 C.2   222  ASN222      0.2597
    110  O         26.9970   26.2730   34.7750 O.2   222  ASN222     -0.2718
    111  CB        23.9990   26.6650   33.4480 C.3   222  ASN222      0.1169
    112  CG        22.9260   27.7090   33.6560 C.2   222  ASN222      0.2627
    113  OD1       23.2230   28.8680   33.9910 O.2   222  ASN222     -0.2716
    114  ND2       21.6650   27.3200   33.4490 N.am  222  ASN222     -0.0877
    115  N         26.8720   25.4900   32.6640 N.am  223  THR223     -0.1953
    116  CA        27.9980   24.5750   32.7910 C.3   223  THR223      0.1897
    117  C         29.2410   25.3370   33.2070 C.2   223  THR223      0.2313
    118  O         29.9040   24.9670   34.1690 O.2   223  THR223     -0.2863
    119  CB        28.2250   23.8060   31.4910 C.3   223  THR223      0.1794
    120  OG1       27.0960   22.9520   31.2680 O.3   223  THR223     -0.2208
    121  CG2       29.5100   22.9540   31.5510 C.3   223  THR223      0.0378
    122  N         29.0360   26.2630   36.8670 N.3   226  PHE226     -0.1227
    123  CA        29.2230   25.1100   37.7400 C.3   226  PHE226      0.1736
    124  C         30.6740   24.6990   37.8780 C.2   226  PHE226      0.2595
    125  O         31.1390   24.4730   38.9950 O.2   226  PHE226     -0.2718
    126  CB        28.3400   23.9330   37.3060 C.3   226  PHE226      0.0547
    127  CG        26.8850   24.1060   37.6890 C.ar  226  PHE226     -0.0202
    128  CD1       26.4130   23.6380   38.9220 C.ar  226  PHE226     -0.0042
    129  CD2       25.9990   24.7810   36.8380 C.ar  226  PHE226     -0.0042
    130  CE1       25.0750   23.8120   39.2860 C.ar  226  PHE226     -0.0003
    131  CE2       24.6460   24.9720   37.1890 C.ar  226  PHE226     -0.0003
    132  CZ        24.1820   24.4860   38.4080 C.ar  226  PHE226     -0.0000
    133  N         31.3860   24.6100   36.7540 N.am  227  ILE227     -0.1980
    134  CA        32.8400   24.3980   36.7540 C.3   227  ILE227      0.1595
    135  C         33.5230   25.4930   37.5840 C.2   227  ILE227      0.2287
    136  O         34.4890   25.2220   38.2960 O.2   227  ILE227     -0.2864
    137  CB        33.4150   24.3680   35.3080 C.3   227  ILE227      0.0276
    138  CG1       32.7040   23.2980   34.4710 C.3   227  ILE227      0.0022
    139  CG2       34.9460   24.1400   35.3050 C.3   227  ILE227      0.0022
    140  CD1       33.0240   23.3590   32.9770 C.3   227  ILE227      0.0001
    141  N         38.6150   25.8370   39.3600 N.3   235  ASN235     -0.1240
    142  CA        38.3280   25.0480   38.1530 C.3   235  ASN235      0.1653
    143  C         37.9190   25.8540   36.9170 C.2   235  ASN235      0.2266
    144  O         38.0210   25.3790   35.7790 O.2   235  ASN235     -0.2867
    145  CB        37.2770   23.9840   38.4640 C.3   235  ASN235      0.1155
    146  CG        37.8270   22.8590   39.3300 C.2   235  ASN235      0.2627
    147  OD1       39.0440   22.7660   39.5780 O.2   235  ASN235     -0.2716
    148  ND2       36.9300   21.9880   39.7890 N.am  235  ASN235     -0.0877
    149  N         18.2610   22.6480   43.9370 N.3   292  ALA292     -0.1231
    150  CA        18.8850   22.2540   42.6620 C.3   292  ALA292      0.1694
    151  C         20.3900   22.5320   42.6130 C.2   292  ALA292      0.2592
    152  O         21.1810   21.6380   42.2950 O.2   292  ALA292     -0.2718
    153  CB        18.2110   22.9540   41.5190 C.3   292  ALA292      0.0304
    154  N         20.7950   23.7660   42.9070 N.am  293  HIS293     -0.1976
    155  CA        22.2200   24.0980   42.9470 C.3   293  HIS293      0.1656
    156  C         22.5060   25.3280   43.7930 C.2   293  HIS293      0.2291
    157  O         21.5910   25.9560   44.3280 O.2   293  HIS293     -0.2864
    158  CB        22.7660   24.2920   41.5270 C.3   293  HIS293      0.0771
    159  CG        22.0050   25.2940   40.7200 C.ar  293  HIS293      0.0820
    160  ND1       22.3200   26.6340   40.7140 N.ar  293  HIS293     -0.2267
    161  CD2       20.9360   25.1540   39.8990 C.ar  293  HIS293      0.1154
    162  CE1       21.4690   27.2790   39.9320 C.ar  293  HIS293      0.1986
    163  NE2       20.6180   26.4050   39.4280 N.ar  293  HIS293     -0.2212
    164  N         14.1350   25.8100   40.2800 N.3   311  GLU311     -0.1231
    165  CA        14.9680   25.0760   39.3010 C.3   311  GLU311      0.1699
    166  C         14.6550   23.5900   39.1850 C.2   311  GLU311      0.2592
    167  O         14.4250   23.0920   38.0770 O.2   311  GLU311     -0.2718
    168  CB        16.4760   25.3140   39.5080 C.3   311  GLU311      0.0402
    169  CG        17.4050   24.4150   38.6640 C.3   311  GLU311      0.1161
    170  CD        17.2150   24.5500   37.1490 C.2   311  GLU311      0.3649
    171  OE1       17.8570   23.7860   36.3950 O.co2 311  GLU311     -0.2457
    172  OE2       16.4430   25.4210   36.6900 O.co2 311  GLU311     -0.2457
    173  N         14.6460   22.8980   40.3260 N.am  312  SER312     -0.1952
    174  CA        14.3820   21.4550   40.4010 C.3   312  SER312      0.1924
    175  C         14.6440   20.9090   41.7960 C.2   312  SER312      0.2314
    176  O         15.4930   21.4340   42.5150 O.2   312  SER312     -0.2863
    177  CB        15.2670   20.6830   39.4150 C.3   312  SER312      0.2116
    178  OG        15.0420   19.2900   39.5260 O.3   312  SER312     -0.2180
@<TRIPOS>BOND
     1    53    54    1
     2    54    55    1
     3    54    57    1
     4    55    56    2
     5    51    50   ar
     6    57    58    1
     7    74    73    2
     8    73    72    1
     9    58    59    1
    10    52    50   ar
    11    79    80    1
    12    78    77    1
    13    50    49    1
    14    71    72    1
    15    75    72    1
    16    75    76    1
    17    59    61   ar
    18    59    60   ar
    19    81    80    1
    20    81    82    2
    21    80    83    1
    22    47    46    1
    23    47    48    2
    24    83    84    1
    25    49    46    1
    26    46    45    1
    27    77    76    1
    28    44    43    2
    29    84    85    1
    30    45    43   am
    31    86    85    1
    32    86    87    1
    33    43    42    1
    34    88    89    1
    35    64    65    2
    36    64    63    1
    37    92    89    1
    38    92    93    1
    39    90    89    1
    40    90    91    2
    41    41    42    1
    42    35    34    2
    43    95    93   ar
    44    93    94   ar
    45    62    63    1
    46   106   103    1
    47    63    66    1
    48    23    21   ar
    49    23    24   ar
    50    39    38    2
    51    21    20   ar
    52    34    33    1
    53   105   104    2
    54    36    33    1
    55    36    37    1
    56   104   103    1
    57    24    22   ar
    58    33    32    1
    59   103   102    1
    60    38    37    1
    61    38    40   am
    62    66    67    1
    63    20    19    1
    64    20    22   ar
    65   102    98   am
    66    19    16    1
    67    96    97    1
    68    28    27    2
    69    67    68    1
    70    32    27   am
    71    98    97    1
    72    98    99    2
    73    27    26    1
    74    97   100    1
    75    16    17    1
    76    16    15    1
    77   100   101    1
    78    18    17    2
    79    68    69   ar
    80    68    70   ar
    81    17    25   am
    82    15     8   am
    83   120   119    1
    84   119   121    1
    85   119   116    1
    86    25    26    1
    87    26    29    1
    88   107   108    1
    89    31    29    1
    90     8     7    1
    91     8     9    2
    92    29    30    1
    93     7    10    1
    94     7     6    1
    95   115   116    1
    96   115   109   am
    97   116   117    1
    98   140   138    1
    99   117   118    2
   100   108   111    1
   101   108   109    1
   102    10    11    1
   103    11    12    1
   104   111   112    1
   105   114   112   am
   106   109   110    2
   107   112   113    2
   108    14    12   ar
   109    12    13   ar
   110   138   137    1
   111   139   137    1
   112   137   134    1
   113   144   143    2
   114   171   170   ar
   115   172   170   ar
   116   134   133    1
   117   134   135    1
   118   133   124   am
   119   129   131   ar
   120   129   127   ar
   121   122   123    1
   122   143   142    1
   123   170   169    1
   124   131   132   ar
   125   126   127    1
   126   126   123    1
   127   135   136    2
   128   127   128   ar
   129   123   124    1
   130   124   125    2
   131   167   166    2
   132   142   145    1
   133   142   141    1
   134   132   130   ar
   135   145   146    1
   136   169   168    1
   137   128   130   ar
   138     5     2    1
   139     2     3    1
   140     2     1    1
   141   166   165    1
   142   166   173   am
   143   165   168    1
   144   165   164    1
   145   146   147    2
   146   146   148   am
   147   177   178    1
   148   177   174    1
   149   163   161   ar
   150   163   162   ar
   151     3     4    2
   152   161   159   ar
   153   162   160   ar
   154   173   174    1
   155   174   175    1
   156   160   159   ar
   157   159   158    1
   158   153   150    1
   159   158   155    1
   160   175   176    2
   161   152   151    2
   162   151   150    1
   163   151   154   am
   164   150   149    1
   165   154   155    1
   166   155   156    1
   167   156   157    2
