@<TRIPOS>MOLECULE
tmp/2i3gA01.pdb
 81 80 0 0 0
SMALL
GASTEIGER

@<TRIPOS>ATOM
      1  N        -34.0020   36.0390  -27.9470 N.3     1  VAL1       -0.1245
      2  CA       -33.8750   36.5530  -26.5480 C.3     1  VAL1        0.1561
      3  C        -34.2290   35.4320  -25.5550 C.2     1  VAL1        0.2260
      4  O        -35.3380   34.8670  -25.6020 O.2     1  VAL1       -0.2867
      5  CB       -34.7670   37.8110  -26.2930 C.3     1  VAL1        0.0252
      6  CG1      -34.6150   38.3240  -24.8540 C.3     1  VAL1        0.0019
      7  CG2      -34.4450   38.9280  -27.2900 C.3     1  VAL1        0.0019
      8  N        -26.6750   41.9010  -11.4910 N.3    27  HIS27      -0.1227
      9  CA       -27.2410   41.8830  -12.8340 C.3    27  HIS27       0.1737
     10  C        -28.7670   42.0960  -12.7620 C.2    27  HIS27       0.2438
     11  O        -29.4390   41.5560  -11.8910 O.2    27  HIS27      -0.2733
     12  CB       -26.8540   40.5540  -13.5050 C.3    27  HIS27       0.0758
     13  CG       -27.1180   40.4850  -14.9820 C.ar   27  HIS27       0.0818
     14  ND1      -28.3870   40.5460  -15.5230 N.ar   27  HIS27      -0.2268
     15  CD2      -26.2750   40.3040  -16.0280 C.ar   27  HIS27       0.1154
     16  CE1      -28.3120   40.4380  -16.8370 C.ar   27  HIS27       0.1986
     17  NE2      -27.0450   40.2790  -17.1700 N.ar   27  HIS27      -0.2212
     18  N        -29.3160   42.9320  -13.6470 N.am   28  PRO28      -0.2718
     19  CA       -30.7620   43.1680  -13.5930 C.3    28  PRO28       0.1535
     20  C        -31.6200   41.9150  -13.8400 C.2    28  PRO28       0.2598
     21  O        -32.7650   41.8740  -13.3800 O.2    28  PRO28      -0.2715
     22  CB       -30.9910   44.2140  -14.6870 C.3    28  PRO28       0.0310
     23  CG       -29.7790   44.0470  -15.6510 C.3    28  PRO28       0.0237
     24  CD       -28.6570   43.7460  -14.6930 C.3    28  PRO28       0.0939
     25  N        -31.0890   40.9160  -14.5440 N.am   29  ALA29      -0.1978
     26  CA       -31.8490   39.6730  -14.7660 C.3    29  ALA29       0.1597
     27  C        -31.9800   38.8680  -13.4920 C.2    29  ALA29       0.2287
     28  O        -32.9550   38.1350  -13.3260 O.2    29  ALA29      -0.2864
     29  CB       -31.2360   38.8450  -15.8590 C.3    29  ALA29       0.0319
     30  N        -34.8690   40.6900  -11.5800 N.3    32  ASP32      -0.1239
     31  CA       -36.2410   40.4800  -12.0680 C.3    32  ASP32       0.1674
     32  C        -36.6050   38.9970  -12.2800 C.2    32  ASP32       0.2266
     33  O        -37.6600   38.6770  -12.8330 O.2    32  ASP32      -0.2867
     34  CB       -36.5960   41.3910  -13.2860 C.3    32  ASP32       0.1410
     35  CG       -36.0890   40.8500  -14.6480 C.2    32  ASP32       0.3668
     36  OD1      -35.3180   39.8740  -14.6970 O.co2  32  ASP32      -0.2456
     37  OD2      -36.4890   41.4160  -15.6940 O.co2  32  ASP32      -0.2456
     38  N        -35.2030   36.5290  -14.0890 N.3    34  ARG34      -0.1245
     39  CA       -34.8930   35.8890  -15.3650 C.3    34  ARG34       0.1563
     40  C        -33.5860   35.0740  -15.3420 C.2    34  ARG34       0.2260
     41  O        -33.3840   34.1720  -16.1710 O.2    34  ARG34      -0.2867
     42  CB       -34.8390   36.9730  -16.4220 C.3    34  ARG34       0.0307
     43  CG       -34.8210   36.5180  -17.8530 C.3    34  ARG34       0.0489
     44  CD       -35.1710   37.7010  -18.7670 C.3    34  ARG34       0.2205
     45  NE       -36.5720   38.1090  -18.6550 N.pl3  34  ARG34      -0.0865
     46  CZ       -37.4660   38.0040  -19.6350 C.cat  34  ARG34       0.5346
     47  NH1      -38.7130   38.4030  -19.4220 N.pl3  34  ARG34       0.1354
     48  NH2      -37.1100   37.5250  -20.8330 N.pl3  34  ARG34       0.1354
     49  N        -29.0050   37.2110  -26.0080 N.3   333  GLY333     -0.1210
     50  CA       -29.7650   38.2850  -26.6650 C.3   333  GLY333      0.1956
     51  C        -30.1950   39.3790  -25.6970 C.2   333  GLY333      0.2612
     52  O        -31.1470   40.0790  -25.9500 O.2   333  GLY333     -0.2717
     53  N        -29.4980   39.5260  -24.5780 N.am  334  TRP334     -0.1962
     54  CA       -29.8180   40.6090  -23.6170 C.3   334  TRP334      0.1756
     55  C        -28.9220   41.8290  -23.8390 C.2   334  TRP334      0.2461
     56  O        -27.8440   41.6860  -24.4020 O.2   334  TRP334     -0.2730
     57  CB       -29.6400   40.1130  -22.1850 C.3   334  TRP334      0.0590
     58  CG       -30.5230   38.9590  -21.7920 C.ar  334  TRP334      0.0006
     59  CD1      -31.6180   38.4560  -22.4710 C.ar  334  TRP334      0.0946
     60  CD2      -30.4130   38.1990  -20.5920 C.ar  334  TRP334      0.0152
     61  NE1      -32.1750   37.4210  -21.7560 N.ar  334  TRP334     -0.2442
     62  CE2      -31.4530   37.2380  -20.6050 C.ar  334  TRP334      0.0810
     63  CE3      -29.5320   38.2350  -19.4980 C.ar  334  TRP334      0.0012
     64  CZ2      -31.6310   36.3260  -19.5720 C.ar  334  TRP334      0.0191
     65  CZ3      -29.7030   37.3130  -18.4830 C.ar  334  TRP334      0.0001
     66  CH2      -30.7530   36.3790  -18.5190 C.ar  334  TRP334      0.0015
     67  N        -29.3550   43.0270  -23.3980 N.am  335  PRO335     -0.2727
     68  CA       -28.5310   44.2250  -23.5980 C.3   335  PRO335      0.1402
     69  C        -27.1030   43.9570  -23.1410 C.2   335  PRO335      0.2269
     70  O        -26.9060   43.4210  -22.0450 O.2   335  PRO335     -0.2865
     71  CB       -29.1970   45.2370  -22.6840 C.3   335  PRO335      0.0296
     72  CG       -30.6280   44.8970  -22.7930 C.3   335  PRO335      0.0237
     73  CD       -30.6050   43.3760  -22.6970 C.3   335  PRO335      0.0939
     74  N        -25.7360   45.0220  -19.6210 N.3   338  ASP338     -0.1239
     75  CA       -26.4880   44.6210  -18.4240 C.3   338  ASP338      0.1674
     76  C        -25.5900   44.0330  -17.3300 C.2   338  ASP338      0.2266
     77  O        -24.8020   43.1020  -17.5760 O.2   338  ASP338     -0.2867
     78  CB       -27.5870   43.6250  -18.7940 C.3   338  ASP338      0.1410
     79  CG       -28.8930   44.3030  -19.2080 C.2   338  ASP338      0.3668
     80  OD1      -28.9850   45.5620  -19.2440 O.co2 338  ASP338     -0.2456
     81  OD2      -29.8380   43.5350  -19.4620 O.co2 338  ASP338     -0.2456
@<TRIPOS>BOND
     1     1     2    1
     2     7     5    1
     3    50    49    1
     4    50    51    1
     5     2     5    1
     6     2     3    1
     7     5     6    1
     8    52    51    2
     9    51    53   am
    10     4     3    2
    11    53    54    1
    12    56    55    2
    13    55    54    1
    14    55    67   am
    15    54    57    1
    16    68    67    1
    17    68    69    1
    18    68    71    1
    19    67    73    1
    20    69    70    2
    21    72    73    1
    22    72    71    1
    23    59    58   ar
    24    59    61   ar
    25    57    58    1
    26    58    60   ar
    27    61    62   ar
    28    48    46    1
    29    62    60   ar
    30    62    64   ar
    31    60    63   ar
    32    46    47    1
    33    46    45    2
    34    74    75    1
    35    64    66   ar
    36    63    65   ar
    37    81    79   ar
    38    80    79   ar
    39    79    78    1
    40    78    75    1
    41    44    45    1
    42    44    43    1
    43    66    65   ar
    44    75    76    1
    45    43    42    1
    46    77    76    2
    47    17    16   ar
    48    17    15   ar
    49    16    14   ar
    50    42    39    1
    51    41    40    2
    52    15    13   ar
    53    29    26    1
    54    37    35   ar
    55    23    24    1
    56    23    22    1
    57    14    13   ar
    58    39    40    1
    59    39    38    1
    60    13    12    1
    61    26    25    1
    62    26    27    1
    63    36    35   ar
    64    24    18    1
    65    22    19    1
    66    35    34    1
    67    25    20   am
    68    20    19    1
    69    20    21    2
    70    18    19    1
    71    18    10   am
    72    12     9    1
    73    27    28    2
    74    34    31    1
    75     9    10    1
    76     9     8    1
    77    33    32    2
    78    10    11    2
    79    32    31    1
    80    31    30    1
