@<TRIPOS>MOLECULE
tmp/2i3hA00.pdb
 126 125 0 0 0
SMALL
GASTEIGER

@<TRIPOS>ATOM
      1  N         77.3680   63.5370   27.2080 N.3    39  THR39      -0.1218
      2  CA        75.9020   63.4910   27.3130 C.3    39  THR39       0.1862
      3  C         75.4150   62.4340   28.3020 C.2    39  THR39       0.2287
      4  O         74.3030   62.5310   28.8130 O.2    39  THR39      -0.2866
      5  CB        75.2300   63.2340   25.9400 C.3    39  THR39       0.1770
      6  OG1       75.6010   61.9410   25.4400 O.3    39  THR39      -0.2211
      7  CG2       75.7040   64.2170   24.8870 C.3    39  THR39       0.0375
      8  N         78.7870   59.7420   23.1620 N.3    44  LYS44      -0.1231
      9  CA        78.3260   61.0030   22.6110 C.3    44  LYS44       0.1693
     10  C         78.7420   62.1640   23.5060 C.2    44  LYS44       0.2592
     11  O         78.4300   62.1820   24.6960 O.2    44  LYS44      -0.2718
     12  CB        76.8010   61.0020   22.4530 C.3    44  LYS44       0.0285
     13  CG        76.2690   60.0660   21.3850 C.3    44  LYS44       0.0035
     14  CD        74.7700   59.8520   21.5530 C.3    44  LYS44       0.0206
     15  CE        74.1530   59.1630   20.3440 C.3    44  LYS44       0.1093
     16  NZ        74.5420   57.7340   20.2520 N.3    44  LYS44      -0.1314
     17  N         79.4580   63.1200   22.9210 N.am   45  VAL45      -0.1966
     18  CA        79.8370   64.3600   23.5890 C.3    45  VAL45       0.1727
     19  C         79.3270   65.5510   22.7830 C.2    45  VAL45       0.2616
     20  O         78.9430   65.4150   21.6270 O.2    45  VAL45      -0.2715
     21  CB        81.3720   64.4780   23.7830 C.3    45  VAL45       0.0290
     22  CG1       81.9240   63.2310   24.4680 C.3    45  VAL45       0.0023
     23  CG2       82.1010   64.7270   22.4580 C.3    45  VAL45       0.0023
     24  N         79.3170   66.7180   23.4150 N.am   46  ARG46      -0.1977
     25  CA        78.8740   67.9370   22.7660 C.3    46  ARG46       0.1597
     26  C         79.6940   69.1310   23.2380 C.2    46  ARG46       0.2287
     27  O         80.0560   69.2190   24.4020 O.2    46  ARG46      -0.2864
     28  CB        77.4020   68.1670   23.0720 C.3    46  ARG46       0.0334
     29  CG        76.7410   69.1050   22.1150 C.3    46  ARG46       0.0492
     30  CD        75.2990   69.3620   22.4380 C.3    46  ARG46       0.2205
     31  NE        74.4260   68.2120   22.2310 N.pl3  46  ARG46      -0.0865
     32  CZ        73.9440   67.8240   21.0520 C.cat  46  ARG46       0.5346
     33  NH1       74.2840   68.4430   19.9250 N.pl3  46  ARG46       0.1354
     34  NH2       73.1210   66.7880   21.0020 N.pl3  46  ARG46       0.1354
     35  N         77.8930   67.9720   18.2050 N.3    53  GLY53      -0.1210
     36  CA        78.0090   66.6780   18.8570 C.3    53  GLY53       0.1956
     37  C         78.9200   65.7500   18.0780 C.2    53  GLY53       0.2612
     38  O         78.8950   65.7590   16.8470 O.2    53  GLY53      -0.2717
     39  N         79.7240   64.9660   18.7970 N.am   54  LEU54      -0.1965
     40  CA        80.5980   63.9540   18.2100 C.3    54  LEU54       0.1728
     41  C         80.4400   62.6290   18.9500 C.2    54  LEU54       0.2616
     42  O         80.3250   62.6080   20.1730 O.2    54  LEU54      -0.2715
     43  CB        82.0570   64.3920   18.2960 C.3    54  LEU54       0.0311
     44  CG        82.4640   65.5610   17.3990 C.3    54  LEU54       0.0022
     45  CD1       83.8700   66.0020   17.7160 C.3    54  LEU54       0.0001
     46  CD2       82.3420   65.1820   15.9320 C.3    54  LEU54       0.0001
     47  N         80.4330   61.5350   18.1980 N.am   55  GLN55      -0.1963
     48  CA        80.3880   60.1870   18.7630 C.3    55  GLN55       0.1733
     49  C         81.3030   59.2540   17.9630 C.2    55  GLN55       0.2617
     50  O         82.0110   59.7000   17.0600 O.2    55  GLN55      -0.2715
     51  CB        78.9480   59.6720   18.7790 C.3    55  GLN55       0.0408
     52  CG        78.3710   59.3540   17.4060 C.3    55  GLN55       0.0908
     53  CD        76.9820   58.7440   17.4750 C.2    55  GLN55       0.2608
     54  OE1       76.5840   58.2110   18.5090 O.2    55  GLN55      -0.2717
     55  NE2       76.2450   58.8240   16.3780 N.am   55  GLN55      -0.0878
     56  N         81.2860   57.9670   18.3010 N.am   56  SER56      -0.1936
     57  CA        82.1240   56.9610   17.6480 C.3    56  SER56       0.2055
     58  C         83.6030   57.3510   17.6710 C.2    56  SER56       0.2643
     59  O         84.2880   57.3400   16.6500 O.2    56  SER56      -0.2714
     60  CB        81.6410   56.7020   16.2130 C.3    56  SER56       0.2130
     61  OG        80.2650   56.3600   16.2110 O.3    56  SER56      -0.2179
     62  N         84.0780   57.6920   18.8600 N.am   57  TRP57      -0.1959
     63  CA        85.4770   58.0240   19.0830 C.3    57  TRP57       0.1771
     64  C         86.3510   56.7890   18.8980 C.2    57  TRP57       0.2619
     65  O         86.0090   55.6980   19.3560 O.2    57  TRP57      -0.2715
     66  CB        85.6600   58.6200   20.4840 C.3    57  TRP57       0.0590
     67  CG        85.0260   59.9720   20.6000 C.ar   57  TRP57       0.0006
     68  CD1       83.7180   60.2430   20.8630 C.ar   57  TRP57       0.0946
     69  CD2       85.6640   61.2330   20.4080 C.ar   57  TRP57       0.0152
     70  NE1       83.5010   61.5990   20.8540 N.ar   57  TRP57      -0.2442
     71  CE2       84.6830   62.2320   20.5750 C.ar   57  TRP57       0.0810
     72  CE3       86.9720   61.6250   20.1090 C.ar   57  TRP57       0.0012
     73  CZ2       84.9720   63.5890   20.4610 C.ar   57  TRP57       0.0191
     74  CZ3       87.2550   62.9640   19.9940 C.ar   57  TRP57       0.0001
     75  CH2       86.2640   63.9340   20.1730 C.ar   57  TRP57       0.0015
     76  N         87.4630   56.9750   18.1960 N.am   58  LYS58      -0.1977
     77  CA        88.4260   55.9110   17.9320 C.3    58  LYS58       0.1596
     78  C         89.6600   56.1520   18.7840 C.2    58  LYS58       0.2287
     79  O         89.9700   57.2920   19.1250 O.2    58  LYS58      -0.2864
     80  CB        88.7990   55.8870   16.4490 C.3    58  LYS58       0.0298
     81  CG        87.6070   55.7350   15.4900 C.3    58  LYS58       0.0038
     82  CD        86.6830   54.5900   15.9030 C.3    58  LYS58       0.0206
     83  CE        85.5640   54.3500   14.8980 C.3    58  LYS58       0.1093
     84  NZ        84.9750   52.9910   15.0550 N.3    58  LYS58      -0.1314
     85  N         92.1090   59.3390   18.8700 N.3    61  ASP61      -0.1239
     86  CA        91.4690   60.5470   18.3320 C.3    61  ASP61       0.1674
     87  C         91.8310   61.6970   19.2530 C.2    61  ASP61       0.2266
     88  O         91.7600   61.5570   20.4700 O.2    61  ASP61      -0.2867
     89  CB        89.9340   60.4370   18.3450 C.3    61  ASP61       0.1410
     90  CG        89.3460   59.8380   17.0790 C.2    61  ASP61       0.3668
     91  OD1       90.0810   59.5430   16.1110 O.co2  61  ASP61      -0.2456
     92  OD2       88.1130   59.6270   16.9770 O.co2  61  ASP61      -0.2456
     93  N         89.4770   66.8940   16.1880 N.3    66  GLU66      -0.1245
     94  CA        88.1200   66.5430   15.7630 C.3    66  GLU66       0.1567
     95  C         87.1880   67.7510   15.8370 C.2    66  GLU66       0.2260
     96  O         86.3160   67.9170   14.9820 O.2    66  GLU66      -0.2867
     97  CB        87.5630   65.3900   16.6060 C.3    66  GLU66       0.0388
     98  CG        88.3370   64.0880   16.5000 C.3    66  GLU66       0.1160
     99  CD        88.4080   63.5520   15.0820 C.2    66  GLU66       0.3649
    100  OE1       87.3450   63.2590   14.5040 O.co2  66  GLU66      -0.2457
    101  OE2       89.5270   63.4150   14.5480 O.co2  66  GLU66      -0.2457
    102  N         85.3540   69.0530   12.2530 N.3    70  TRP70      -0.1227
    103  CA        83.9040   68.9880   12.0520 C.3    70  TRP70       0.1737
    104  C         83.1740   70.3110   12.2880 C.2    70  TRP70       0.2595
    105  O         82.1320   70.5570   11.6820 O.2    70  TRP70      -0.2718
    106  CB        83.3130   67.9110   12.9570 C.3    70  TRP70       0.0564
    107  CG        83.8040   66.5450   12.6220 C.ar   70  TRP70       0.0003
    108  CD1       84.6650   65.7770   13.3530 C.ar   70  TRP70       0.0946
    109  CD2       83.4740   65.7800   11.4590 C.ar   70  TRP70       0.0152
    110  NE1       84.8900   64.5800   12.7170 N.ar   70  TRP70      -0.2442
    111  CE2       84.1680   64.5510   11.5530 C.ar   70  TRP70       0.0810
    112  CE3       82.6570   66.0030   10.3410 C.ar   70  TRP70       0.0012
    113  CZ2       84.0710   63.5570   10.5780 C.ar   70  TRP70       0.0191
    114  CZ3       82.5610   65.0120    9.3730 C.ar   70  TRP70       0.0001
    115  CH2       83.2670   63.8070    9.4970 C.ar   70  TRP70       0.0015
    116  N         83.7210   71.1540   13.1610 N.am   71  PHE71      -0.1976
    117  CA        83.0920   72.4240   13.5350 C.3    71  PHE71       0.1639
    118  C         84.0810   73.5880   13.4850 C.2    71  PHE71       0.2290
    119  O         84.2920   74.2640   14.4920 O.2    71  PHE71      -0.2864
    120  CB        82.4890   72.3250   14.9390 C.3    71  PHE71       0.0560
    121  CG        81.7020   71.0760   15.1690 C.ar   71  PHE71      -0.0200
    122  CD1       80.5590   70.8140   14.4230 C.ar   71  PHE71      -0.0042
    123  CD2       82.1070   70.1520   16.1210 C.ar   71  PHE71      -0.0042
    124  CE1       79.8320   69.6520   14.6290 C.ar   71  PHE71      -0.0003
    125  CE2       81.3860   68.9920   16.3290 C.ar   71  PHE71      -0.0003
    126  CZ        80.2500   68.7390   15.5860 C.ar   71  PHE71      -0.0000
@<TRIPOS>BOND
     1   114   115   ar
     2   114   112   ar
     3   115   113   ar
     4   112   109   ar
     5   113   111   ar
     6   109   111   ar
     7   109   107   ar
     8   111   110   ar
     9   105   104    2
    10   103   102    1
    11   103   104    1
    12   103   106    1
    13   104   116   am
    14   107   106    1
    15   107   108   ar
    16   110   108   ar
    17   116   117    1
    18   118   117    1
    19   118   119    2
    20   117   120    1
    21   122   124   ar
    22   122   121   ar
    23   100    99   ar
    24   101    99   ar
    25   124   126   ar
    26    83    84    1
    27    83    82    1
    28   120   121    1
    29    96    95    2
    30    99    98    1
    31   121   123   ar
    32    81    82    1
    33    81    80    1
    34   126   125   ar
    35    94    95    1
    36    94    93    1
    37    94    97    1
    38    46    44    1
    39    91    90   ar
    40   123   125   ar
    41    61    60    1
    42    60    57    1
    43    55    53   am
    44    80    77    1
    45    98    97    1
    46    59    58    2
    47    38    37    2
    48    92    90   ar
    49    50    49    2
    50    90    89    1
    51    44    45    1
    52    44    43    1
    53    52    53    1
    54    52    51    1
    55    53    54    2
    56    57    58    1
    57    57    56    1
    58    58    62   am
    59    77    76    1
    60    77    78    1
    61    49    56   am
    62    49    48    1
    63    37    39   am
    64    37    36    1
    65    76    64   am
    66    47    48    1
    67    47    41   am
    68    35    36    1
    69    40    43    1
    70    40    39    1
    71    40    41    1
    72    86    89    1
    73    86    85    1
    74    86    87    1
    75    48    51    1
    76    78    79    2
    77    62    63    1
    78    64    63    1
    79    64    65    2
    80    41    42    2
    81    63    66    1
    82    87    88    2
    83    33    32    1
    84    74    72   ar
    85    74    75   ar
    86    72    69   ar
    87    75    73   ar
    88    16    15    1
    89    15    14    1
    90    69    71   ar
    91    69    67   ar
    92    73    71   ar
    93    66    67    1
    94    71    70   ar
    95    67    68   ar
    96    70    68   ar
    97    34    32    1
    98    32    31    2
    99    13    14    1
   100    13    12    1
   101    20    19    2
   102    29    30    1
   103    29    28    1
   104    31    30    1
   105    12     9    1
   106    23    21    1
   107     9     8    1
   108     9    10    1
   109    25    28    1
   110    25    26    1
   111    25    24    1
   112    19    24   am
   113    19    18    1
   114    17    10   am
   115    17    18    1
   116    26    27    2
   117    10    11    2
   118    18    21    1
   119    21    22    1
   120     7     5    1
   121     6     5    1
   122     5     2    1
   123     1     2    1
   124     2     3    1
   125     3     4    2
