@<TRIPOS>MOLECULE
tmp/2i3iB00.pdb
 135 134 0 0 0
SMALL
GASTEIGER

@<TRIPOS>ATOM
      1  N         74.6400   62.0230   40.0760 N.3    39  THR39      -0.1218
      2  CA        74.4950   61.3620   38.7710 C.3    39  THR39       0.1862
      3  C         73.7520   62.1970   37.7300 C.2    39  THR39       0.2287
      4  O         73.6690   61.8170   36.5560 O.2    39  THR39      -0.2866
      5  CB        73.7130   60.0520   38.9110 C.3    39  THR39       0.1770
      6  OG1       72.3920   60.3500   39.3870 O.3    39  THR39      -0.2211
      7  CG2       74.4060   59.0990   39.8900 C.3    39  THR39       0.0375
      8  N         69.8830   61.7310   43.5360 N.3    44  LYS44      -0.1231
      9  CA        70.6920   60.5240   43.5290 C.3    44  LYS44       0.1693
     10  C         72.1700   60.8480   43.4870 C.2    44  LYS44       0.2592
     11  O         72.6480   61.6020   42.6090 O.2    44  LYS44      -0.2718
     12  CB        70.3880   59.6870   42.2830 C.3    44  LYS44       0.0285
     13  CG        68.9890   59.1310   42.2040 C.3    44  LYS44       0.0035
     14  CD        68.7740   58.4550   40.8660 C.3    44  LYS44       0.0206
     15  CE        67.5790   57.5350   40.8950 C.3    44  LYS44       0.1093
     16  NZ        66.3350   58.3300   40.9260 N.3    44  LYS44      -0.1314
     17  N         72.9100   60.2540   44.4110 N.am   45  VAL45      -0.1966
     18  CA        74.3620   60.3480   44.4020 C.3    45  VAL45       0.1727
     19  C         74.9410   58.9500   44.4570 C.2    45  VAL45       0.2616
     20  O         74.2760   58.0250   44.9010 O.2    45  VAL45      -0.2715
     21  CB        74.8920   61.2000   45.5820 C.3    45  VAL45       0.0290
     22  CG1       74.3220   62.6180   45.5350 C.3    45  VAL45       0.0023
     23  CG2       74.6160   60.5380   46.9290 C.3    45  VAL45       0.0023
     24  N         76.1710   58.7860   43.9830 N.am   46  ARG46      -0.1977
     25  CA        76.9330   57.5480   44.2040 C.3    46  ARG46       0.1597
     26  C         78.3100   57.8580   44.8180 C.2    46  ARG46       0.2287
     27  O         78.8920   58.9260   44.5560 O.2    46  ARG46      -0.2864
     28  CB        77.1440   56.7830   42.9060 C.3    46  ARG46       0.0334
     29  CG        75.8600   56.2390   42.2420 C.3    46  ARG46       0.0492
     30  CD        76.2050   55.1660   41.2740 C.3    46  ARG46       0.2205
     31  NE        75.0420   54.5760   40.6140 N.pl3  46  ARG46      -0.0865
     32  CZ        74.2320   53.6740   41.1630 C.cat  46  ARG46       0.5346
     33  NH1       74.4090   53.2500   42.4070 N.pl3  46  ARG46       0.1354
     34  NH2       73.2330   53.1910   40.4500 N.pl3  46  ARG46       0.1354
     35  N         74.7710   53.8080   46.0790 N.3    53  GLY53      -0.1210
     36  CA        73.8070   54.8420   45.7110 C.3    53  GLY53       0.1956
     37  C         72.7420   55.1810   46.7580 C.2    53  GLY53       0.2612
     38  O         72.1010   54.2940   47.3420 O.2    53  GLY53      -0.2717
     39  N         72.5750   56.4880   46.9900 N.am   54  LEU54      -0.1965
     40  CA        71.5580   57.0180   47.9020 C.3    54  LEU54       0.1728
     41  C         70.8530   58.2240   47.2940 C.2    54  LEU54       0.2616
     42  O         71.4780   59.0190   46.5850 O.2    54  LEU54      -0.2715
     43  CB        72.1940   57.4270   49.2270 C.3    54  LEU54       0.0311
     44  CG        72.7540   56.2820   50.0640 C.3    54  LEU54       0.0022
     45  CD1       73.6010   56.8910   51.1750 C.3    54  LEU54       0.0001
     46  CD2       71.6320   55.3550   50.6080 C.3    54  LEU54       0.0001
     47  N         69.5460   58.3030   47.5600 N.am   55  GLN55      -0.1963
     48  CA        68.6970   59.4160   47.1600 C.3    55  GLN55       0.1733
     49  C         67.7400   59.7340   48.3080 C.2    55  GLN55       0.2617
     50  O         67.8400   59.1400   49.4050 O.2    55  GLN55      -0.2715
     51  CB        67.9210   59.0830   45.8760 C.3    55  GLN55       0.0408
     52  CG        66.8320   58.0310   46.0140 C.3    55  GLN55       0.0908
     53  CD        65.8950   57.9940   44.8340 C.2    55  GLN55       0.2608
     54  OE1       66.0710   58.7130   43.8480 O.2    55  GLN55      -0.2717
     55  NE2       64.8640   57.1910   44.9420 N.am   55  GLN55      -0.0878
     56  N         66.8120   60.6520   48.0640 N.am   56  SER56      -0.1936
     57  CA        65.8600   61.0680   49.0770 C.3    56  SER56       0.2055
     58  C         66.5570   61.5190   50.3510 C.2    56  SER56       0.2643
     59  O         66.2000   61.0980   51.4430 O.2    56  SER56      -0.2714
     60  CB        64.8560   59.9500   49.3720 C.3    56  SER56       0.2130
     61  OG        64.1840   59.5780   48.1780 O.3    56  SER56      -0.2179
     62  N         67.5430   62.4040   50.2000 N.am   57  TRP57      -0.1959
     63  CA        68.2230   62.9680   51.3550 C.3    57  TRP57       0.1771
     64  C         67.2630   63.8270   52.1790 C.2    57  TRP57       0.2619
     65  O         66.4390   64.5410   51.6270 O.2    57  TRP57      -0.2715
     66  CB        69.4530   63.7440   50.9180 C.3    57  TRP57       0.0590
     67  CG        70.4840   62.8420   50.3280 C.ar   57  TRP57       0.0006
     68  CD1       70.5410   62.4020   49.0490 C.ar   57  TRP57       0.0946
     69  CD2       71.5830   62.2330   51.0110 C.ar   57  TRP57       0.0152
     70  NE1       71.6180   61.5710   48.8810 N.ar   57  TRP57      -0.2442
     71  CE2       72.2870   61.4660   50.0670 C.ar   57  TRP57       0.0810
     72  CE3       72.0610   62.2910   52.3200 C.ar   57  TRP57       0.0012
     73  CZ2       73.4360   60.7450   50.3930 C.ar   57  TRP57       0.0191
     74  CZ3       73.2060   61.5780   52.6420 C.ar   57  TRP57       0.0001
     75  CH2       73.8760   60.8170   51.6870 C.ar   57  TRP57       0.0015
     76  N         67.3310   63.7000   53.4970 N.am   58  LYS58      -0.1977
     77  CA        66.4200   64.4340   54.3870 C.3    58  LYS58       0.1596
     78  C         67.1990   65.4650   55.1750 C.2    58  LYS58       0.2287
     79  O         68.3990   65.2880   55.4180 O.2    58  LYS58      -0.2864
     80  CB        65.7070   63.5010   55.3720 C.3    58  LYS58       0.0298
     81  CG        64.9140   62.3750   54.7240 C.3    58  LYS58       0.0038
     82  CD        63.9060   62.8540   53.6390 C.3    58  LYS58       0.0206
     83  CE        63.1140   61.6410   53.0500 C.3    58  LYS58       0.1093
     84  NZ        62.0610   62.0370   52.0260 N.3    58  LYS58      -0.1314
     85  N         70.3640   64.9480   57.5750 N.3    61  ASP61      -0.1239
     86  CA        71.1290   63.7610   57.2200 C.3    61  ASP61       0.1674
     87  C         72.5860   64.1320   57.2130 C.2    61  ASP61       0.2266
     88  O         72.9630   65.1800   56.6560 O.2    61  ASP61      -0.2867
     89  CB        70.7810   63.2420   55.8260 C.3    61  ASP61       0.1410
     90  CG        69.5920   62.3060   55.8170 C.2    61  ASP61       0.3668
     91  OD1       69.0160   61.9910   56.8880 O.co2  61  ASP61      -0.2456
     92  OD2       69.2360   61.8740   54.7090 O.co2  61  ASP61      -0.2456
     93  N         75.3810   58.1310   56.7540 N.3    66  GLU66      -0.1245
     94  CA        74.5700   57.3710   55.8180 C.3    66  GLU66       0.1567
     95  C         75.4560   56.4610   54.9620 C.2    66  GLU66       0.2260
     96  O         75.0640   55.3480   54.6270 O.2    66  GLU66      -0.2867
     97  CB        73.7630   58.3150   54.8930 C.3    66  GLU66       0.0388
     98  CG        72.7520   59.2300   55.6390 C.3    66  GLU66       0.1160
     99  CD        71.6290   58.4430   56.3290 C.2    66  GLU66       0.3649
    100  OE1       71.0040   57.6070   55.6640 O.co2  66  GLU66      -0.2457
    101  OE2       71.3860   58.6560   57.5370 O.co2  66  GLU66      -0.2457
    102  N         76.0020   53.6330   57.3790 N.3    69  LYS69      -0.1231
    103  CA        74.7640   52.8840   57.5380 C.3    69  LYS69       0.1693
    104  C         74.5510   51.9280   56.3570 C.2    69  LYS69       0.2592
    105  O         74.2910   50.7480   56.5520 O.2    69  LYS69      -0.2718
    106  CB        73.5560   53.8190   57.6070 C.3    69  LYS69       0.0285
    107  CG        73.2170   54.4520   58.9690 C.3    69  LYS69       0.0035
    108  CD        71.8260   55.1550   58.8330 C.3    69  LYS69       0.0206
    109  CE        71.5190   56.2080   59.9080 C.3    69  LYS69       0.1093
    110  NZ        70.3680   57.1190   59.5350 N.3    69  LYS69      -0.1314
    111  N         74.6690   52.4510   55.1430 N.am   70  TRP70      -0.1962
    112  CA        74.2580   51.7180   53.9600 C.3    70  TRP70       0.1771
    113  C         75.3850   50.9170   53.3170 C.2    70  TRP70       0.2619
    114  O         75.1230   49.8880   52.7330 O.2    70  TRP70      -0.2715
    115  CB        73.5970   52.6630   52.9300 C.3    70  TRP70       0.0590
    116  CG        72.3190   53.2640   53.4290 C.ar   70  TRP70       0.0006
    117  CD1       72.1540   54.5020   53.9750 C.ar   70  TRP70       0.0946
    118  CD2       71.0370   52.6360   53.4730 C.ar   70  TRP70       0.0152
    119  NE1       70.8480   54.6830   54.3610 N.ar   70  TRP70      -0.2442
    120  CE2       70.1370   53.5590   54.0510 C.ar   70  TRP70       0.0810
    121  CE3       70.5550   51.3840   53.0740 C.ar   70  TRP70       0.0012
    122  CZ2       68.7830   53.2740   54.2330 C.ar   70  TRP70       0.0191
    123  CZ3       69.2040   51.1060   53.2460 C.ar   70  TRP70       0.0001
    124  CH2       68.3350   52.0420   53.8310 C.ar   70  TRP70       0.0015
    125  N         76.6270   51.3820   53.4190 N.am   71  PHE71      -0.1974
    126  CA        77.7500   50.7450   52.7220 C.3    71  PHE71       0.1639
    127  C         78.9600   50.5440   53.6490 C.2    71  PHE71       0.2290
    128  O         80.0460   51.0860   53.3900 O.2    71  PHE71      -0.2864
    129  CB        78.1240   51.5730   51.4920 C.3    71  PHE71       0.0560
    130  CG        76.9420   52.0490   50.7000 C.ar   71  PHE71      -0.0200
    131  CD1       76.1000   51.1470   50.0830 C.ar   71  PHE71      -0.0042
    132  CD2       76.6820   53.4130   50.5550 C.ar   71  PHE71      -0.0042
    133  CE1       74.9980   51.5790   49.3570 C.ar   71  PHE71      -0.0003
    134  CE2       75.5910   53.8570   49.8250 C.ar   71  PHE71      -0.0003
    135  CZ        74.7440   52.9440   49.2330 C.ar   71  PHE71      -0.0000
@<TRIPOS>BOND
     1     4     3    2
     2     3     2    1
     3     2     5    1
     4     2     1    1
     5     5     6    1
     6     5     7    1
     7    34    32    1
     8    31    32    2
     9    31    30    1
    10    14    15    1
    11    14    13    1
    12    15    16    1
    13    32    33    1
    14    30    29    1
    15    13    12    1
    16    29    28    1
    17    12     9    1
    18    11    10    2
    19    28    25    1
    20    10     9    1
    21    10    17   am
    22     9     8    1
    23    54    53    2
    24    24    25    1
    25    24    19   am
    26    25    26    1
    27    18    17    1
    28    18    19    1
    29    18    21    1
    30    19    20    2
    31    27    26    2
    32    53    55   am
    33    53    52    1
    34    22    21    1
    35    21    23    1
    36    36    35    1
    37    36    37    1
    38    51    52    1
    39    51    48    1
    40    42    41    2
    41    37    39   am
    42    37    38    2
    43    39    40    1
    44    48    47    1
    45    48    49    1
    46    41    47   am
    47    41    40    1
    48    40    43    1
    49    56    49   am
    50    56    57    1
    51    61    60    1
    52    49    50    2
    53    70    68   ar
    54    70    71   ar
    55    68    67   ar
    56    57    60    1
    57    57    58    1
    58    43    44    1
    59   135   133   ar
    60   135   134   ar
    61   133   131   ar
    62   134   132   ar
    63    44    46    1
    64    44    45    1
    65    71    73   ar
    66    71    69   ar
    67   131   130   ar
    68    62    58   am
    69    62    63    1
    70    67    66    1
    71    67    69   ar
    72    58    59    2
    73    73    75   ar
    74   132   130   ar
    75   130   129    1
    76    66    63    1
    77    69    72   ar
    78    63    64    1
    79   129   126    1
    80    65    64    2
    81    75    74   ar
    82    84    83    1
    83    64    76   am
    84    72    74   ar
    85   126   125    1
    86   126   127    1
    87   114   113    2
    88   115   116    1
    89   115   112    1
    90    83    82    1
    91   121   123   ar
    92   121   118   ar
    93   123   124   ar
    94   113   125   am
    95   113   112    1
    96   128   127    2
    97   116   118   ar
    98   116   117   ar
    99   118   120   ar
   100    76    77    1
   101    82    81    1
   102   124   122   ar
   103   112   111    1
   104   117   119   ar
   105   120   122   ar
   106   120   119   ar
   107    77    78    1
   108    77    80    1
   109    96    95    2
   110    92    90   ar
   111    81    80    1
   112    97    98    1
   113    97    94    1
   114    95    94    1
   115   111   104   am
   116    78    79    2
   117    98    99    1
   118   100    99   ar
   119    90    89    1
   120    90    91   ar
   121    94    93    1
   122    89    86    1
   123    99   101   ar
   124   104   105    2
   125   104   103    1
   126    88    87    2
   127    87    86    1
   128    86    85    1
   129   102   103    1
   130   103   106    1
   131   106   107    1
   132   108   107    1
   133   108   109    1
   134   110   109    1
