@<TRIPOS>MOLECULE
tmp/2i3zA00.pdb
 181 178 0 0 0
SMALL
GASTEIGER

@<TRIPOS>ATOM
      1  N         15.7370   27.2500  -77.9690 N.3    86  ARG86      -0.1245
      2  CA        16.0250   28.0360  -76.7670 C.3    86  ARG86       0.1563
      3  C         15.6920   27.4140  -75.4250 C.2    86  ARG86       0.2260
      4  O         16.5030   27.4710  -74.5140 O.2    86  ARG86      -0.2867
      5  CB        15.3650   29.4160  -76.8590 C.3    86  ARG86       0.0307
      6  CG        16.2910   30.5590  -76.4640 C.3    86  ARG86       0.0489
      7  CD        15.6180   31.9120  -76.6430 C.3    86  ARG86       0.2205
      8  NE        16.5620   33.0150  -76.8660 N.pl3  86  ARG86      -0.0865
      9  CZ        17.1570   33.2950  -78.0300 C.cat  86  ARG86       0.5346
     10  NH1       16.9100   32.5480  -79.1010 N.pl3  86  ARG86       0.1354
     11  NH2       17.9980   34.3300  -78.1360 N.pl3  86  ARG86       0.1354
     12  N          9.4450   30.2240  -78.8250 N.3   166  GLU166     -0.1231
     13  CA        10.3520   31.3450  -78.9610 C.3   166  GLU166      0.1699
     14  C          9.7310   32.7230  -78.7670 C.2   166  GLU166      0.2592
     15  O         10.3050   33.5680  -78.0980 O.2   166  GLU166     -0.2718
     16  CB        11.0000   31.2710  -80.3480 C.3   166  GLU166      0.0402
     17  CG        12.1080   32.2580  -80.6230 C.3   166  GLU166      0.1161
     18  CD        13.3050   32.0260  -79.7380 C.2   166  GLU166      0.3649
     19  OE1       13.5290   30.8600  -79.3330 O.co2 166  GLU166     -0.2457
     20  OE2       14.0360   33.0000  -79.4540 O.co2 166  GLU166     -0.2457
     21  N          8.5420   32.9320  -79.3250 N.am  167  GLU167     -0.1979
     22  CA         7.8940   34.2440  -79.2960 C.3   167  GLU167      0.1602
     23  C          6.6650   34.5190  -78.4270 C.2   167  GLU167      0.2287
     24  O          6.3680   35.6860  -78.1510 O.2   167  GLU167     -0.2864
     25  CB         7.5570   34.6300  -80.7310 C.3   167  GLU167      0.0415
     26  CG         8.6900   34.3700  -81.7110 C.3   167  GLU167      0.1163
     27  CD         9.9110   35.2240  -81.4250 C.2   167  GLU167      0.3649
     28  OE1        9.8340   36.1160  -80.5470 O.co2 167  GLU167     -0.2457
     29  OE2       10.9440   35.0110  -82.0850 O.co2 167  GLU167     -0.2457
     30  N          6.1320   42.7180  -75.1180 N.3   318  PHE318     -0.1241
     31  CA         6.3120   41.6660  -76.1250 C.3   318  PHE318      0.1605
     32  C          5.0180   40.8560  -76.1710 C.2   318  PHE318      0.2264
     33  O          4.9200   39.8450  -76.8630 O.2   318  PHE318     -0.2867
     34  CB         7.4840   40.7430  -75.7910 C.3   318  PHE318      0.0534
     35  CG         8.8410   41.3640  -75.9970 C.ar  318  PHE318     -0.0203
     36  CD1        9.3420   42.2980  -75.1020 C.ar  318  PHE318     -0.0042
     37  CD2        9.6440   40.9790  -77.0690 C.ar  318  PHE318     -0.0042
     38  CE1       10.6270   42.8300  -75.2720 C.ar  318  PHE318     -0.0003
     39  CE2       10.9310   41.5110  -77.2370 C.ar  318  PHE318     -0.0003
     40  CZ        11.4120   42.4310  -76.3390 C.ar  318  PHE318     -0.0000
     41  N         25.2840   47.0820  -80.2210 N.3   510  VAL510     -0.1231
     42  CA        23.8570   47.1890  -80.5460 C.3   510  VAL510      0.1692
     43  C         22.9260   45.9980  -80.4190 C.2   510  VAL510      0.2592
     44  O         23.3080   44.8260  -80.5370 O.2   510  VAL510     -0.2718
     45  CB        23.6200   47.6850  -81.9840 C.3   510  VAL510      0.0266
     46  CG1       22.7300   48.8930  -81.9670 C.3   510  VAL510      0.0020
     47  CG2       24.9200   47.9610  -82.6640 C.3   510  VAL510      0.0020
     48  N         21.6730   46.3620  -80.1930 N.am  511  TYR511     -0.1976
     49  CA        20.5400   45.4590  -80.1230 C.3   511  TYR511      0.1639
     50  C         19.5760   46.4190  -80.8080 C.2   511  TYR511      0.2290
     51  O         19.3970   46.3600  -82.0220 O.2   511  TYR511     -0.2864
     52  CB        20.1210   45.1670  -78.6730 C.3   511  TYR511      0.0560
     53  CG        18.8700   44.3060  -78.5440 C.ar  511  TYR511     -0.0198
     54  CD1       18.0440   44.0690  -79.6500 C.ar  511  TYR511     -0.0009
     55  CD2       18.4510   43.8200  -77.3000 C.ar  511  TYR511     -0.0009
     56  CE1       16.8290   43.3840  -79.5200 C.ar  511  TYR511      0.0417
     57  CE2       17.2360   43.1360  -77.1630 C.ar  511  TYR511      0.0417
     58  CZ        16.4260   42.9250  -78.2770 C.ar  511  TYR511      0.1957
     59  OH        15.1980   42.2970  -78.1560 O.3   511  TYR511     -0.2866
     60  N         19.9420   48.5360  -73.7830 N.3   518  LYS518     -0.1245
     61  CA        21.3570   48.2290  -73.6940 C.3   518  LYS518      0.1561
     62  C         22.0550   49.1230  -72.6750 C.2   518  LYS518      0.2260
     63  O         23.1800   48.8380  -72.2560 O.2   518  LYS518     -0.2867
     64  CB        22.0010   48.3850  -75.0600 C.3   518  LYS518      0.0271
     65  CG        21.5300   47.3620  -76.0540 C.3   518  LYS518      0.0035
     66  CD        22.0590   46.0000  -75.7210 C.3   518  LYS518      0.0206
     67  CE        23.5520   45.9540  -75.8560 C.3   518  LYS518      0.1093
     68  NZ        24.0160   44.5560  -75.9010 N.3   518  LYS518     -0.1314
     69  N         24.4970   41.4780  -82.5700 N.3   593  TRP593     -0.1227
     70  CA        23.9990   40.1220  -82.7520 C.3   593  TRP593      0.1737
     71  C         22.5060   40.2210  -83.0600 C.2   593  TRP593      0.2596
     72  O         21.8410   41.1720  -82.6430 O.2   593  TRP593     -0.2718
     73  CB        24.2010   39.3490  -81.4530 C.3   593  TRP593      0.0564
     74  CG        24.4200   37.8960  -81.6100 C.ar  593  TRP593      0.0003
     75  CD1       23.5570   36.9950  -82.1360 C.ar  593  TRP593      0.0946
     76  CD2       25.5810   37.1590  -81.2100 C.ar  593  TRP593      0.0152
     77  NE1       24.1000   35.7360  -82.0900 N.ar  593  TRP593     -0.2442
     78  CE2       25.3440   35.8080  -81.5260 C.ar  593  TRP593      0.0810
     79  CE3       26.7970   37.5110  -80.6120 C.ar  593  TRP593      0.0012
     80  CZ2       26.2760   34.8010  -81.2660 C.ar  593  TRP593      0.0191
     81  CZ3       27.7230   36.5140  -80.3520 C.ar  593  TRP593      0.0001
     82  CH2       27.4570   35.1700  -80.6790 C.ar  593  TRP593      0.0015
     83  N         21.9920   39.2490  -83.8040 N.am  594  SER594     -0.1938
     84  CA        20.5720   39.1910  -84.1450 C.3   594  SER594      0.2055
     85  C         20.0240   40.5210  -84.6900 C.2   594  SER594      0.2643
     86  O         20.3500   40.9060  -85.8050 O.2   594  SER594     -0.2714
     87  CB        19.7790   38.7460  -82.9090 C.3   594  SER594      0.2130
     88  OG        20.4340   37.7100  -82.1940 O.3   594  SER594     -0.2179
     89  N         19.1810   41.2070  -83.9210 N.am  595  TYR595     -0.1973
     90  CA        18.6250   42.4870  -84.3520 C.3   595  TYR595      0.1639
     91  C         19.7810   43.4740  -84.4050 C.2   595  TYR595      0.2290
     92  O         19.8570   44.3200  -85.2920 O.2   595  TYR595     -0.2864
     93  CB        17.5810   42.9920  -83.3550 C.3   595  TYR595      0.0560
     94  CG        16.6850   44.1020  -83.8700 C.ar  595  TYR595     -0.0198
     95  CD1       15.3840   43.8330  -84.3030 C.ar  595  TYR595     -0.0009
     96  CD2       17.1370   45.4220  -83.9350 C.ar  595  TYR595     -0.0009
     97  CE1       14.5580   44.8490  -84.7860 C.ar  595  TYR595      0.0417
     98  CE2       16.3160   46.4460  -84.4200 C.ar  595  TYR595      0.0417
     99  CZ        15.0290   46.1540  -84.8470 C.ar  595  TYR595      0.1957
    100  OH        14.2370   47.1590  -85.3590 O.3   595  TYR595     -0.2866
    101  N         19.6210   39.8570  -89.3120 N.3   620  VAL620     -0.1245
    102  CA        18.4010   39.6610  -90.0560 C.3   620  VAL620      0.1561
    103  C         18.6560   40.5750  -91.2520 C.2   620  VAL620      0.2260
    104  O         19.1530   41.6800  -91.0530 O.2   620  VAL620     -0.2867
    105  CB        17.1940   40.1580  -89.2310 C.3   620  VAL620      0.0252
    106  CG1       16.0350   40.5050  -90.1240 C.3   620  VAL620      0.0019
    107  CG2       16.7900   39.1010  -88.2580 C.3   620  VAL620      0.0019
    108  N         12.8600   41.5920  -93.3430 N.3   623  TRP623     -0.1241
    109  CA        11.8600   40.9760  -92.4810 C.3   623  TRP623      0.1605
    110  C         10.9700   39.8360  -92.9630 C.2   623  TRP623      0.2264
    111  O         10.2880   39.2080  -92.1610 O.2   623  TRP623     -0.2867
    112  CB        11.0210   42.0720  -91.8270 C.3   623  TRP623      0.0550
    113  CG        11.8810   42.9130  -90.9430 C.ar  623  TRP623      0.0003
    114  CD1       12.3580   44.1570  -91.2120 C.ar  623  TRP623      0.0946
    115  CD2       12.4870   42.5120  -89.7080 C.ar  623  TRP623      0.0152
    116  NE1       13.2280   44.5570  -90.2320 N.ar  623  TRP623     -0.2442
    117  CE2       13.3250   43.5660  -89.2950 C.ar  623  TRP623      0.0810
    118  CE3       12.4000   41.3640  -88.9100 C.ar  623  TRP623      0.0012
    119  CZ2       14.0740   43.5100  -88.1250 C.ar  623  TRP623      0.0191
    120  CZ3       13.1450   41.3100  -87.7410 C.ar  623  TRP623      0.0001
    121  CH2       13.9710   42.3800  -87.3610 C.ar  623  TRP623      0.0015
    122  N         12.3350   36.5450  -91.2970 N.3   626  TYR626     -0.1241
    123  CA        12.1500   36.1950  -89.9010 C.3   626  TYR626      0.1605
    124  C         10.7510   35.6610  -89.5920 C.2   626  TYR626      0.2264
    125  O          9.8430   35.7700  -90.4140 O.2   626  TYR626     -0.2867
    126  CB        12.4980   37.3890  -89.0230 C.3   626  TYR626      0.0534
    127  CG        12.8850   36.9740  -87.6290 C.ar  626  TYR626     -0.0201
    128  CD1       13.8040   35.9460  -87.4210 C.ar  626  TYR626     -0.0009
    129  CD2       12.3130   37.5880  -86.5110 C.ar  626  TYR626     -0.0009
    130  CE1       14.1390   35.5330  -86.1320 C.ar  626  TYR626      0.0417
    131  CE2       12.6460   37.1830  -85.2210 C.ar  626  TYR626      0.0417
    132  CZ        13.5550   36.1540  -85.0380 C.ar  626  TYR626      0.1957
    133  OH        13.8440   35.7520  -83.7580 O.3   626  TYR626     -0.2866
    134  N          7.0860   37.4800  -84.0010 N.3   630  TYR630     -0.1241
    135  CA         7.9540   38.6200  -83.7310 C.3   630  TYR630      0.1605
    136  C          7.8150   39.7360  -84.7660 C.2   630  TYR630      0.2264
    137  O          7.3970   40.8450  -84.4410 O.2   630  TYR630     -0.2867
    138  CB         9.4150   38.1800  -83.6760 C.3   630  TYR630      0.0534
    139  CG        10.3540   39.2740  -83.2250 C.ar  630  TYR630     -0.0201
    140  CD1       10.4350   39.6320  -81.8820 C.ar  630  TYR630     -0.0009
    141  CD2       11.1340   39.9800  -84.1440 C.ar  630  TYR630     -0.0009
    142  CE1       11.2610   40.6520  -81.4640 C.ar  630  TYR630      0.0417
    143  CE2       11.9660   41.0130  -83.7320 C.ar  630  TYR630      0.0417
    144  CZ        12.0210   41.3380  -82.3900 C.ar  630  TYR630      0.1957
    145  OH        12.8420   42.3480  -81.9610 O.3   630  TYR630     -0.2866
    146  N          4.4210   41.6470  -85.2310 N.3   633  ARG633     -0.1245
    147  CA         4.0910   42.4750  -84.0710 C.3   633  ARG633      0.1563
    148  C          4.4320   43.9380  -84.3510 C.2   633  ARG633      0.2260
    149  O          3.6990   44.8530  -83.9650 O.2   633  ARG633     -0.2867
    150  CB         4.8740   41.9660  -82.8380 C.3   633  ARG633      0.0307
    151  CG         4.6060   42.6830  -81.5060 C.3   633  ARG633      0.0489
    152  CD         4.6770   41.6960  -80.3270 C.3   633  ARG633      0.2205
    153  NE         5.9310   40.9480  -80.2710 N.pl3 633  ARG633     -0.0865
    154  CZ         6.0560   39.7190  -79.7750 C.cat 633  ARG633      0.5346
    155  NH1        4.9970   39.0800  -79.2920 N.pl3 633  ARG633      0.1354
    156  NH2        7.2460   39.1280  -79.7470 N.pl3 633  ARG633      0.1354
    157  N         16.9060   30.0180  -85.6520 N.3   674  ASN674     -0.1225
    158  CA        16.1780   31.2520  -85.3440 C.3   674  ASN674      0.1785
    159  C         16.2920   32.2280  -86.5090 C.2   674  ASN674      0.2597
    160  O         15.3000   32.5810  -87.1330 O.2   674  ASN674     -0.2718
    161  CB        16.7400   31.8920  -84.0810 C.3   674  ASN674      0.1169
    162  CG        15.7440   32.8140  -83.4040 C.2   674  ASN674      0.2627
    163  OD1       15.0450   33.5870  -84.0650 O.2   674  ASN674     -0.2716
    164  ND2       15.6780   32.7420  -82.0800 N.am  674  ASN674     -0.0877
    165  N         17.5150   32.6730  -86.7730 N.am  675  VAL675     -0.1980
    166  CA        17.8210   33.5670  -87.8890 C.3   675  VAL675      0.1595
    167  C         18.5180   32.5890  -88.8330 C.2   675  VAL675      0.2287
    168  O         19.6380   32.1650  -88.5920 O.2   675  VAL675     -0.2864
    169  CB        18.7620   34.6770  -87.4460 C.3   675  VAL675      0.0276
    170  CG1       19.0340   35.5960  -88.5870 C.3   675  VAL675      0.0022
    171  CG2       18.1410   35.4370  -86.3140 C.3   675  VAL675      0.0022
    172  N         22.1130   29.5720  -82.9630 N.3   704  HIS704     -0.1241
    173  CA        21.9300   31.0000  -83.1990 C.3   704  HIS704      0.1621
    174  C         22.7840   31.7440  -82.1960 C.2   704  HIS704      0.2264
    175  O         23.0290   32.9260  -82.3350 O.2   704  HIS704     -0.2867
    176  CB        20.4790   31.4210  -83.0040 C.3   704  HIS704      0.0745
    177  CG        20.2580   32.8950  -83.1500 C.ar  704  HIS704      0.0817
    178  ND1       20.5990   33.5900  -84.2900 N.ar  704  HIS704     -0.2268
    179  CD2       19.7130   33.8040  -82.3060 C.ar  704  HIS704      0.1154
    180  CE1       20.2730   34.8610  -84.1430 C.ar  704  HIS704      0.1986
    181  NE2       19.7330   35.0180  -82.9490 N.ar  704  HIS704     -0.2212
@<TRIPOS>BOND
     1   108   109    1
     2   110   109    1
     3   110   111    2
     4   109   112    1
     5   112   113    1
     6   122   123    1
     7   103   104    2
     8   103   102    1
     9   114   113   ar
    10   114   116   ar
    11   113   115   ar
    12   125   124    2
    13   116   117   ar
    14   106   105    1
    15   102   101    1
    16   102   105    1
    17   123   124    1
    18   123   126    1
    19   115   117   ar
    20   115   118   ar
    21   117   119   ar
    22   105   107    1
    23   126   127    1
    24   118   120   ar
    25   167   168    2
    26   167   166    1
    27   170   169    1
    28   119   121   ar
    29   166   169    1
    30   166   165    1
    31   120   121   ar
    32   127   128   ar
    33   127   129   ar
    34   169   171    1
    35   128   130   ar
    36   160   159    2
    37   165   159   am
    38   129   131   ar
    39   159   158    1
    40   130   132   ar
    41    86    85    2
    42   157   158    1
    43   100    99    1
    44   158   161    1
    45    92    91    2
    46   146   147    1
    47   131   132   ar
    48   132   133    1
    49    99    97   ar
    50    99    98   ar
    51    97    95   ar
    52   136   137    2
    53   136   135    1
    54    85    84    1
    55    85    89   am
    56    98    96   ar
    57    91    90    1
    58    90    89    1
    59    90    93    1
    60   148   147    1
    61   148   149    2
    62    95    94   ar
    63   178   180   ar
    64   178   177   ar
    65    84    83    1
    66    84    87    1
    67   141   143   ar
    68   141   139   ar
    69   180   181   ar
    70   161   162    1
    71   147   150    1
    72   163   162    2
    73   134   135    1
    74    96    94   ar
    75    94    93    1
    76    83    71   am
    77   143   144   ar
    78   135   138    1
    79   138   139    1
    80   162   164   am
    81   139   140   ar
    82   173   176    1
    83   173   172    1
    84   173   174    1
    85   177   176    1
    86   177   179   ar
    87    71    70    1
    88    71    72    2
    89   181   179   ar
    90    87    88    1
    91   150   151    1
    92    70    69    1
    93    70    73    1
    94    47    45    1
    95   144   145    1
    96   144   142   ar
    97   175   174    2
    98    75    77   ar
    99    75    74   ar
   100    77    78   ar
   101    29    27   ar
   102    51    50    2
   103    45    46    1
   104    45    42    1
   105   140   142   ar
   106    26    27    1
   107    26    25    1
   108    74    73    1
   109    74    76   ar
   110    78    80   ar
   111    78    76   ar
   112   151   152    1
   113    27    28   ar
   114    80    82   ar
   115    76    79   ar
   116    50    49    1
   117    25    22    1
   118    82    81   ar
   119    17    16    1
   120    17    18    1
   121    79    81   ar
   122    42    43    1
   123    42    41    1
   124    44    43    2
   125    43    48   am
   126    16    13    1
   127   152   153    1
   128   153   154    2
   129    48    49    1
   130    49    52    1
   131   154   156    1
   132   154   155    1
   133    18    20   ar
   134    18    19   ar
   135    54    56   ar
   136    54    53   ar
   137    56    58   ar
   138    21    22    1
   139    21    14   am
   140    22    23    1
   141    10     9    1
   142    13    12    1
   143    13    14    1
   144    14    15    2
   145    52    53    1
   146    53    55   ar
   147    23    24    2
   148    58    59    1
   149    58    57   ar
   150    11     9    1
   151     9     8    2
   152     1     2    1
   153    55    57   ar
   154    39    37   ar
   155    39    40   ar
   156    37    35   ar
   157     8     7    1
   158    33    32    2
   159     5     2    1
   160     5     6    1
   161     2     3    1
   162     7     6    1
   163    40    38   ar
   164    32    31    1
   165    31    34    1
   166    31    30    1
   167    65    66    1
   168    65    64    1
   169    35    34    1
   170    35    36   ar
   171    68    67    1
   172    67    66    1
   173     3     4    2
   174    38    36   ar
   175    64    61    1
   176    60    61    1
   177    61    62    1
   178    62    63    2
