@<TRIPOS>MOLECULE
tmp/2i40C00.pdb
 184 177 0 0 0
SMALL
GASTEIGER

@<TRIPOS>ATOM
      1  N        -30.9950  166.7600   89.8770 N.3    10  ILE10      -0.1231
      2  CA       -32.0540  166.6900   88.8610 C.3    10  ILE10       0.1692
      3  C        -31.5490  166.8790   87.4320 C.2    10  ILE10       0.2592
      4  O        -32.3390  166.8820   86.4850 O.2    10  ILE10      -0.2718
      5  CB       -33.2170  167.6870   89.1390 C.3    10  ILE10       0.0266
      6  CG1      -32.7050  169.1300   89.1980 C.3    10  ILE10       0.0019
      7  CG2      -33.9660  167.3020   90.4170 C.3    10  ILE10       0.0020
      8  CD1      -33.7900  170.1860   89.1000 C.3    10  ILE10       0.0001
      9  N        -30.2360  167.0410   87.2830 N.am   11  GLY11      -0.1957
     10  CA       -29.6180  167.2210   85.9710 C.3    11  GLY11       0.1869
     11  C        -28.1770  167.6860   86.0520 C.2    11  GLY11       0.2309
     12  O        -27.7500  168.2500   87.0620 O.2    11  GLY11      -0.2863
     13  N        -21.6290  172.6230   81.9690 N.3    15  TYR15      -0.1241
     14  CA       -21.7860  173.7570   82.8960 C.3    15  TYR15       0.1605
     15  C        -21.4950  173.4120   84.3780 C.2    15  TYR15       0.2264
     16  O        -20.8020  174.1670   85.0800 O.2    15  TYR15      -0.2867
     17  CB       -23.2010  174.3570   82.7620 C.3    15  TYR15       0.0534
     18  CG       -24.3130  173.3430   82.9790 C.ar   15  TYR15      -0.0201
     19  CD1      -24.6920  172.4620   81.9570 C.ar   15  TYR15      -0.0009
     20  CD2      -24.9780  173.2530   84.2090 C.ar   15  TYR15      -0.0009
     21  CE1      -25.7040  171.5230   82.1500 C.ar   15  TYR15       0.0417
     22  CE2      -25.9930  172.3120   84.4140 C.ar   15  TYR15       0.0417
     23  CZ       -26.3480  171.4500   83.3790 C.ar   15  TYR15       0.1957
     24  OH       -27.3470  170.5170   83.5630 O.3    15  TYR15      -0.2866
     25  N        -27.1060  170.5880   88.5560 N.3    18  VAL18      -0.1245
     26  CA       -28.3560  171.2100   89.0030 C.3    18  VAL18       0.1561
     27  C        -29.0220  170.3750   90.1020 C.2    18  VAL18       0.2260
     28  O        -29.3420  169.2050   89.8920 O.2    18  VAL18      -0.2867
     29  CB       -29.3500  171.4590   87.8390 C.3    18  VAL18       0.0252
     30  CG1      -30.6010  172.1710   88.3430 C.3    18  VAL18       0.0019
     31  CG2      -28.7020  172.2820   86.7520 C.3    18  VAL18       0.0019
     32  N        -34.4490  175.2990   92.5290 N.3    31  ALA31      -0.1245
     33  CA       -33.5290  174.5790   91.6580 C.3    31  ALA31       0.1562
     34  C        -32.1930  175.3080   91.6690 C.2    31  ALA31       0.2260
     35  O        -32.0990  176.4210   91.1590 O.2    31  ALA31      -0.2867
     36  CB       -34.0850  174.5190   90.2590 C.3    31  ALA31       0.0290
     37  N        -28.5080  175.8290   90.3460 N.3    33  LYS33      -0.1245
     38  CA       -27.4990  175.5500   89.3260 C.3    33  LYS33       0.1561
     39  C        -26.1330  175.9110   89.8920 C.2    33  LYS33       0.2260
     40  O        -25.8800  177.0720   90.2220 O.2    33  LYS33      -0.2867
     41  CB       -27.7680  176.3240   88.0310 C.3    33  LYS33       0.0271
     42  CG       -27.0630  175.7190   86.8180 C.3    33  LYS33       0.0035
     43  CD       -26.8690  176.7010   85.6550 C.3    33  LYS33       0.0206
     44  CE       -28.1190  176.8250   84.7930 C.3    33  LYS33       0.1093
     45  NZ       -27.7910  177.0550   83.3580 N.3    33  LYS33      -0.1314
     46  N        -27.1100  184.5440   80.5770 N.3    51  GLU51      -0.1245
     47  CA       -28.2920  184.0010   81.2370 C.3    51  GLU51       0.1567
     48  C        -28.7530  184.8770   82.3980 C.2    51  GLU51       0.2260
     49  O        -29.9250  185.2320   82.4730 O.2    51  GLU51      -0.2867
     50  CB       -28.0660  182.5580   81.7040 C.3    51  GLU51       0.0388
     51  CG       -29.2750  181.9500   82.4370 C.3    51  GLU51       0.1160
     52  CD       -29.1800  180.4440   82.6530 C.2    51  GLU51       0.3649
     53  OE1      -28.0420  179.9230   82.7280 O.co2  51  GLU51      -0.2457
     54  OE2      -30.2540  179.7880   82.7500 O.co2  51  GLU51      -0.2457
     55  N        -32.1090  187.1620   82.1320 N.3    55  LEU55      -0.1245
     56  CA       -33.1970  186.5930   82.9240 C.3    55  LEU55       0.1561
     57  C        -33.7190  187.5350   83.9840 C.2    55  LEU55       0.2260
     58  O        -34.9220  187.5720   84.2440 O.2    55  LEU55      -0.2867
     59  CB       -32.7910  185.2760   83.5830 C.3    55  LEU55       0.0270
     60  CG       -33.3710  183.9810   83.0180 C.3    55  LEU55       0.0019
     61  CD1      -33.0690  182.8480   83.9780 C.3    55  LEU55       0.0001
     62  CD2      -34.8690  184.0920   82.7950 C.3    55  LEU55       0.0001
     63  N        -39.4430  180.9680   83.6070 N.3    64  VAL64      -0.1245
     64  CA       -38.8690  180.5230   84.8750 C.3    64  VAL64       0.1561
     65  C        -38.1880  181.6910   85.5840 C.2    64  VAL64       0.2260
     66  O        -37.4350  182.4490   84.9770 O.2    64  VAL64      -0.2867
     67  CB       -37.8850  179.3390   84.6810 C.3    64  VAL64       0.0252
     68  CG1      -36.6050  179.7880   83.9630 C.3    64  VAL64       0.0019
     69  CG2      -37.5490  178.6930   86.0160 C.3    64  VAL64       0.0019
     70  N        -33.2140  179.1770   90.9650 N.3    80  PHE80      -0.1227
     71  CA       -34.4390  179.2940   90.1620 C.3    80  PHE80       0.1736
     72  C        -35.6490  178.7750   90.9340 C.2    80  PHE80       0.2595
     73  O        -35.5050  177.9410   91.8360 O.2    80  PHE80      -0.2718
     74  CB       -34.3340  178.4680   88.8710 C.3    80  PHE80       0.0547
     75  CG       -33.2030  178.8610   87.9810 C.ar   80  PHE80      -0.0202
     76  CD1      -33.3670  179.8580   87.0290 C.ar   80  PHE80      -0.0042
     77  CD2      -31.9730  178.2180   88.0770 C.ar   80  PHE80      -0.0042
     78  CE1      -32.3220  180.2230   86.2000 C.ar   80  PHE80      -0.0003
     79  CE2      -30.9190  178.5750   87.2510 C.ar   80  PHE80      -0.0003
     80  CZ       -31.0930  179.5810   86.3100 C.ar   80  PHE80      -0.0000
     81  N        -36.8440  179.2400   90.5680 N.am   81  GLU81      -0.1965
     82  CA       -38.0680  178.6190   91.0750 C.3    81  GLU81       0.1733
     83  C        -38.1030  177.1840   90.5810 C.2    81  GLU81       0.2616
     84  O        -37.6510  176.8970   89.4720 O.2    81  GLU81      -0.2715
     85  CB       -39.3350  179.3750   90.6580 C.3    81  GLU81       0.0429
     86  CG       -39.4840  179.6350   89.1760 C.3    81  GLU81       0.1163
     87  CD       -40.9210  179.8980   88.7630 C.2    81  GLU81       0.3649
     88  OE1      -41.1450  180.6730   87.8050 O.co2  81  GLU81      -0.2457
     89  OE2      -41.8360  179.3220   89.3870 O.co2  81  GLU81      -0.2457
     90  N        -38.6140  176.2850   91.4160 N.am   82  PHE82      -0.1960
     91  CA       -38.6680  174.8690   91.0770 C.3    82  PHE82       0.1771
     92  C        -39.9450  174.5360   90.3320 C.2    82  PHE82       0.2619
     93  O        -41.0340  174.8990   90.7530 O.2    82  PHE82      -0.2715
     94  CB       -38.5310  174.0000   92.3300 C.3    82  PHE82       0.0574
     95  CG       -38.4470  172.5270   92.0420 C.ar   82  PHE82      -0.0200
     96  CD1      -37.2950  171.9740   91.4850 C.ar   82  PHE82      -0.0042
     97  CD2      -39.5170  171.6850   92.3320 C.ar   82  PHE82      -0.0042
     98  CE1      -37.2150  170.6010   91.2150 C.ar   82  PHE82      -0.0003
     99  CE2      -39.4420  170.3170   92.0670 C.ar   82  PHE82      -0.0003
    100  CZ       -38.2880  169.7760   91.5080 C.ar   82  PHE82      -0.0000
    101  N        -39.8000  173.8560   89.2070 N.am   83  LEU83      -0.1963
    102  CA       -40.9540  173.3110   88.5200 C.3    83  LEU83       0.1728
    103  C        -40.9130  171.7830   88.5840 C.2    83  LEU83       0.2616
    104  O        -39.8930  171.2070   88.9580 O.2    83  LEU83      -0.2715
    105  CB       -41.0670  173.8670   87.1010 C.3    83  LEU83       0.0311
    106  CG       -41.7710  175.2270   87.1020 C.3    83  LEU83       0.0022
    107  CD1      -40.7740  176.3710   87.2400 C.3    83  LEU83       0.0001
    108  CD2      -42.5950  175.3970   85.8460 C.3    83  LEU83       0.0001
    109  N        -42.0200  171.1360   88.2340 N.am   84  HIS84      -0.1959
    110  CA       -42.1530  169.7130   88.4990 C.3    84  HIS84       0.1787
    111  C        -41.5720  168.8100   87.4050 C.2    84  HIS84       0.2620
    112  O        -41.1090  167.7060   87.7030 O.2    84  HIS84      -0.2715
    113  CB       -43.6080  169.3690   88.8400 C.3    84  HIS84       0.0785
    114  CG       -44.0950  170.0220   90.1000 C.ar   84  HIS84       0.0821
    115  ND1      -44.4930  171.3410   90.1500 N.ar   84  HIS84      -0.2267
    116  CD2      -44.2270  169.5430   91.3610 C.ar   84  HIS84       0.1154
    117  CE1      -44.8580  171.6440   91.3830 C.ar   84  HIS84       0.1986
    118  NE2      -44.7050  170.5710   92.1370 N.ar   84  HIS84      -0.2212
    119  N        -41.5580  169.2840   86.1600 N.am   85  GLN85      -0.1963
    120  CA       -41.1250  168.4490   85.0460 C.3    85  GLN85       0.1733
    121  C        -40.8820  169.2650   83.7860 C.2    85  GLN85       0.2616
    122  O        -41.3030  170.4180   83.6960 O.2    85  GLN85      -0.2715
    123  CB       -42.2170  167.4200   84.7570 C.3    85  GLN85       0.0408
    124  CG       -41.7280  166.0710   84.2780 C.3    85  GLN85       0.0908
    125  CD       -42.8020  165.0050   84.3990 C.2    85  GLN85       0.2608
    126  OE1      -43.9160  165.1640   83.8910 O.2    85  GLN85      -0.2717
    127  NE2      -42.4730  163.9130   85.0790 N.am   85  GLN85      -0.0878
    128  N        -40.2100  168.6570   82.8120 N.am   86  ASP86      -0.1971
    129  CA       -40.1010  169.2440   81.4810 C.3    86  ASP86       0.1709
    130  C        -41.1460  168.6510   80.5380 C.2    86  ASP86       0.2293
    131  O        -41.6720  167.5660   80.7970 O.2    86  ASP86      -0.2864
    132  CB       -38.6780  169.1090   80.9140 C.3    86  ASP86       0.1436
    133  CG       -38.1810  167.6740   80.8860 C.2    86  ASP86       0.3671
    134  OD1      -38.4240  166.9740   79.8780 O.co2  86  ASP86      -0.2456
    135  OD2      -37.5250  167.2580   81.8630 O.co2  86  ASP86      -0.2456
    136  N        -37.5770  169.8020   76.2220 N.3   131  GLN131     -0.1231
    137  CA       -36.8660  169.5920   77.4890 C.3   131  GLN131      0.1698
    138  C        -36.3950  170.8890   78.1460 C.2   131  GLN131      0.2592
    139  O        -35.8670  170.8710   79.2610 O.2   131  GLN131     -0.2718
    140  CB       -35.7120  168.5910   77.3340 C.3   131  GLN131      0.0381
    141  CG       -34.5490  169.0610   76.4680 C.3   131  GLN131      0.0905
    142  CD       -33.3940  168.0550   76.4090 C.2   131  GLN131      0.2608
    143  OE1      -32.2270  168.4460   76.2460 O.2   131  GLN131     -0.2717
    144  NE2      -33.7150  166.7570   76.5390 N.am  131  GLN131     -0.0878
    145  N        -36.5910  172.0030   77.4430 N.am  132  ASN132     -0.1974
    146  CA       -36.2980  173.3420   77.9580 C.3   132  ASN132      0.1688
    147  C        -37.5560  174.1040   78.3860 C.2   132  ASN132      0.2292
    148  O        -37.4850  175.2730   78.7720 O.2   132  ASN132     -0.2864
    149  CB       -35.5220  174.1560   76.9190 C.3   132  ASN132      0.1181
    150  CG       -34.0300  173.8800   76.9550 C.2   132  ASN132      0.2629
    151  OD1      -33.5070  173.3060   77.9190 O.2   132  ASN132     -0.2716
    152  ND2      -33.3320  174.2980   75.9050 N.am  132  ASN132     -0.0877
    153  N        -40.8050  174.0010   80.9850 N.3   134  LEU134     -0.1245
    154  CA       -41.1140  173.3710   82.2550 C.3   134  LEU134      0.1561
    155  C        -42.5640  173.5420   82.6700 C.2   134  LEU134      0.2260
    156  O        -43.1780  174.5740   82.4070 O.2   134  LEU134     -0.2867
    157  CB       -40.1840  173.8910   83.3480 C.3   134  LEU134      0.0270
    158  CG       -38.6810  173.6760   83.1700 C.3   134  LEU134      0.0019
    159  CD1      -37.9460  174.2500   84.3580 C.3   134  LEU134      0.0001
    160  CD2      -38.3280  172.2050   82.9950 C.3   134  LEU134      0.0001
    161  N        -37.5640  178.0270   79.9190 N.3   144  ALA144     -0.1231
    162  CA       -36.3770  177.8700   80.7500 C.3   144  ALA144      0.1694
    163  C        -35.1080  177.7920   79.9070 C.2   144  ALA144      0.2592
    164  O        -35.1550  177.8420   78.6780 O.2   144  ALA144     -0.2718
    165  CB       -36.5060  176.6410   81.6340 C.3   144  ALA144      0.0304
    166  N        -33.9790  177.6810   80.5990 N.am  145  ASP145     -0.1960
    167  CA       -32.6520  177.5870   80.0020 C.3   145  ASP145      0.1840
    168  C        -32.3280  178.6760   78.9810 C.2   145  ASP145      0.2622
    169  O        -32.3440  178.4410   77.7730 O.2   145  ASP145     -0.2715
    170  CB       -32.4140  176.2000   79.4160 C.3   145  ASP145      0.1450
    171  CG       -30.9470  175.8900   79.2560 C.2   145  ASP145      0.3671
    172  OD1      -30.1110  176.7520   79.6250 O.co2 145  ASP145     -0.2456
    173  OD2      -30.6290  174.7830   78.7640 O.co2 145  ASP145     -0.2456
    174  N        -32.0090  179.8610   79.4890 N.am  146  PHE146     -0.1974
    175  CA       -31.6130  180.9910   78.6550 C.3   146  PHE146      0.1639
    176  C        -30.0970  181.0290   78.4100 C.2   146  PHE146      0.2290
    177  O        -29.5260  182.0830   78.1310 O.2   146  PHE146     -0.2864
    178  CB       -32.1350  182.2970   79.2630 C.3   146  PHE146      0.0560
    179  CG       -33.6140  182.5020   79.0560 C.ar  146  PHE146     -0.0200
    180  CD1      -34.5450  181.7300   79.7490 C.ar  146  PHE146     -0.0042
    181  CD2      -34.0760  183.4520   78.1530 C.ar  146  PHE146     -0.0042
    182  CE1      -35.9030  181.9030   79.5420 C.ar  146  PHE146     -0.0003
    183  CE2      -35.4400  183.6360   77.9460 C.ar  146  PHE146     -0.0003
    184  CZ       -36.3520  182.8580   78.6400 C.ar  146  PHE146     -0.0000
@<TRIPOS>BOND
     1   152   150   am
     2   136   137    1
     3   143   142    2
     4   142   141    1
     5   142   144   am
     6   141   140    1
     7   149   150    1
     8   149   146    1
     9   150   151    2
    10   140   137    1
    11   145   146    1
    12   145   138   am
    13   137   138    1
    14   169   168    2
    15   183   181   ar
    16   183   184   ar
    17   146   147    1
    18   177   176    2
    19   138   139    2
    20   181   179   ar
    21   147   148    2
    22   176   175    1
    23   184   182   ar
    24   175   178    1
    25   175   174    1
    26   164   163    2
    27   173   171   ar
    28   168   174   am
    29   168   167    1
    30   179   178    1
    31   179   180   ar
    32   171   170    1
    33   171   172   ar
    34   170   167    1
    35   182   180   ar
    36   134   133   ar
    37   163   166   am
    38   163   162    1
    39   161   162    1
    40   167   166    1
    41   130   131    2
    42   130   129    1
    43    46    47    1
    44   162   165    1
    45   133   132    1
    46   133   135   ar
    47   132   129    1
    48   153   154    1
    49    47    50    1
    50    47    48    1
    51   129   128    1
    52    50    51    1
    53    19    21   ar
    54    19    18   ar
    55    13    14    1
    56    55    56    1
    57    21    23   ar
    58   154   155    1
    59   154   157    1
    60    48    49    2
    61   156   155    2
    62    51    52    1
    63    52    53   ar
    64    52    54   ar
    65    17    14    1
    66    17    18    1
    67    62    60    1
    68   128   121   am
    69    14    15    1
    70    56    59    1
    71    56    57    1
    72    18    20   ar
    73   160   158    1
    74    60    59    1
    75    60    61    1
    76   158   157    1
    77   158   159    1
    78    45    44    1
    79    23    24    1
    80    23    22   ar
    81    63    64    1
    82   122   121    2
    83   121   120    1
    84   126   125    2
    85    68    67    1
    86    57    58    2
    87    20    22   ar
    88   124   125    1
    89   124   123    1
    90    15    16    2
    91   125   127   am
    92    67    64    1
    93    67    69    1
    94   123   120    1
    95    44    43    1
    96    64    65    1
    97    66    65    2
    98   120   119    1
    99    43    42    1
   100   108   106    1
   101    10    11    1
   102    10     9    1
   103    11    12    2
   104   119   111   am
   105    78    80   ar
   106    78    76   ar
   107    80    79   ar
   108     4     3    2
   109    31    29    1
   110    42    41    1
   111    76    75   ar
   112   105   106    1
   113   105   102    1
   114   106   107    1
   115    79    77   ar
   116     9     3   am
   117   111   112    2
   118   111   110    1
   119     3     2    1
   120    88    87   ar
   121    29    30    1
   122    29    26    1
   123    75    77   ar
   124    75    74    1
   125    41    38    1
   126   109   110    1
   127   109   103   am
   128   110   113    1
   129   102   103    1
   130   102   101    1
   131    25    26    1
   132   103   104    2
   133    87    86    1
   134    87    89   ar
   135   113   114    1
   136     2     5    1
   137     2     1    1
   138    74    71    1
   139    26    27    1
   140     8     6    1
   141     5     6    1
   142     5     7    1
   143    86    85    1
   144   101    92   am
   145    38    39    1
   146    38    37    1
   147    84    83    2
   148    28    27    2
   149    39    40    2
   150   114   115   ar
   151   114   116   ar
   152   115   117   ar
   153    71    72    1
   154    71    70    1
   155    36    33    1
   156    92    93    2
   157    92    91    1
   158    81    72   am
   159    81    82    1
   160    83    82    1
   161    83    90   am
   162    85    82    1
   163    72    73    2
   164    91    90    1
   165    91    94    1
   166    35    34    2
   167    98    96   ar
   168    98   100   ar
   169   116   118   ar
   170   117   118   ar
   171    96    95   ar
   172   100    99   ar
   173    33    34    1
   174    33    32    1
   175    95    94    1
   176    95    97   ar
   177    99    97   ar
