@<TRIPOS>MOLECULE
tmp/2i47D00.pdb
 177 173 0 0 0
SMALL
GASTEIGER

@<TRIPOS>ATOM
      1  N         -5.6780   96.1310   34.0800 N.3    94  ASP94      -0.1225
      2  CA        -5.5310   94.7560   34.5430 C.3    94  ASP94       0.1805
      3  C         -4.4990   94.0010   33.7120 C.2    94  ASP94       0.2598
      4  O         -4.5570   94.0010   32.4830 O.2    94  ASP94      -0.2718
      5  CB        -6.8760   94.0290   34.4970 C.3    94  ASP94       0.1424
      6  CG        -6.7460   92.5440   34.7750 C.2    94  ASP94       0.3668
      7  OD1       -6.5930   92.1700   35.9570 O.co2  94  ASP94      -0.2456
      8  OD2       -6.7960   91.7510   33.8110 O.co2  94  ASP94      -0.2456
      9  N         -3.5550   93.3590   34.3920 N.am   95  VAL95      -0.1966
     10  CA        -2.2950   92.9670   33.7710 C.3    95  VAL95       0.1727
     11  C         -2.4940   91.7980   32.8120 C.2    95  VAL95       0.2616
     12  O         -1.8630   91.7340   31.7570 O.2    95  VAL95      -0.2715
     13  CB        -1.2420   92.5800   34.8260 C.3    95  VAL95       0.0290
     14  CG1       -1.6550   91.3040   35.5440 C.3    95  VAL95       0.0023
     15  CG2        0.1230   92.4160   34.1760 C.3    95  VAL95       0.0023
     16  N         -3.3750   90.8760   33.1850 N.am   96  LYS96      -0.1977
     17  CA        -3.6780   89.7230   32.3470 C.3    96  LYS96       0.1596
     18  C         -4.4180   90.1640   31.0670 C.2    96  LYS96       0.2287
     19  O         -4.0960   89.7150   29.9640 O.2    96  LYS96      -0.2864
     20  CB        -4.5510   88.7150   33.1050 C.3    96  LYS96       0.0298
     21  CG        -4.7960   87.4180   32.3230 C.3    96  LYS96       0.0038
     22  CD        -5.9140   86.5900   32.9530 C.3    96  LYS96       0.0206
     23  CE        -6.3060   85.4140   32.0430 C.3    96  LYS96       0.1093
     24  NZ        -7.5440   84.7410   32.5240 N.3    96  LYS96      -0.1314
     25  N         -1.0040   96.1260   43.2420 N.3   126  MET126     -0.1230
     26  CA        -0.2400   95.2480   44.1300 C.3   126  MET126      0.1702
     27  C          1.2160   94.9200   43.7430 C.2   126  MET126      0.2593
     28  O          1.6700   93.7870   43.9130 O.2   126  MET126     -0.2718
     29  CB        -0.9930   93.9200   44.3280 C.3   126  MET126      0.0401
     30  CG        -2.4030   94.0870   44.9170 C.3   126  MET126      0.0596
     31  SD        -3.2290   92.5060   45.1600 S.3   126  MET126     -0.1393
     32  CE        -3.7380   92.1390   43.4830 C.3   126  MET126      0.0692
     33  N          1.9370   95.9120   43.2300 N.am  127  GLY127     -0.1942
     34  CA         3.3320   95.7120   42.8660 C.3   127  GLY127      0.2014
     35  C          3.6590   94.8740   41.6420 C.2   127  GLY127      0.2640
     36  O          4.8300   94.5650   41.4050 O.2   127  GLY127     -0.2714
     37  N          2.6520   94.5010   40.8630 N.am  128  THR128     -0.1936
     38  CA         2.8820   93.7000   39.6640 C.3   128  THR128      0.2028
     39  C          3.7710   94.4780   38.6750 C.2   128  THR128      0.2642
     40  O          3.5720   95.6730   38.4630 O.2   128  THR128     -0.2714
     41  CB         1.5490   93.3320   38.9980 C.3   128  THR128      0.1808
     42  OG1        0.8510   92.4130   39.8440 O.3   128  THR128     -0.2208
     43  CG2        1.7780   92.6790   37.6180 C.3   128  THR128      0.0379
     44  N          4.7450   93.7870   38.0860 N.am  129  LEU129     -0.1963
     45  CA         5.6870   94.4070   37.1540 C.3   129  LEU129      0.1728
     46  C          5.6550   93.8740   35.7370 C.2   129  LEU129      0.2617
     47  O          6.0360   94.5730   34.8010 O.2   129  LEU129     -0.2715
     48  CB         7.1220   94.2130   37.6430 C.3   129  LEU129      0.0311
     49  CG         7.3590   94.9470   38.9560 C.3   129  LEU129      0.0022
     50  CD1        8.4770   94.2860   39.7600 C.3   129  LEU129      0.0001
     51  CD2        7.5970   96.4300   38.5990 C.3   129  LEU129      0.0001
     52  N          5.2190   92.6310   35.5690 N.am  130  GLY130     -0.1940
     53  CA         5.1810   92.0550   34.2390 C.3   130  GLY130      0.2014
     54  C          4.4110   90.7520   34.1910 C.2   130  GLY130      0.2639
     55  O          4.0020   90.2140   35.2270 O.2   130  GLY130     -0.2714
     56  N          4.2260   90.2350   32.9840 N.am  131  LEU131     -0.1963
     57  CA         3.4880   88.9950   32.7880 C.3   131  LEU131      0.1728
     58  C          3.9010   88.4140   31.4480 C.2   131  LEU131      0.2616
     59  O          4.1830   89.1600   30.5110 O.2   131  LEU131     -0.2715
     60  CB         1.9780   89.2890   32.7860 C.3   131  LEU131      0.0311
     61  CG         1.0850   88.0640   32.8600 C.3   131  LEU131      0.0022
     62  CD1        1.1970   87.5330   34.2820 C.3   131  LEU131      0.0001
     63  CD2       -0.3870   88.3930   32.5450 C.3   131  LEU131      0.0001
     64  N          3.9490   87.0890   31.3490 N.am  132  ALA132     -0.1977
     65  CA         4.3400   86.4440   30.0970 C.3   132  ALA132      0.1597
     66  C          3.8770   85.0090   30.0280 C.2   132  ALA132      0.2287
     67  O          3.7520   84.3460   31.0510 O.2   132  ALA132     -0.2864
     68  CB         5.8560   86.4350   29.9440 C.3   132  ALA132      0.0319
     69  N         16.4110   96.9830   38.1050 N.3   179  GLU179     -0.1245
     70  CA        15.1700   96.2520   38.3500 C.3   179  GLU179      0.1567
     71  C         14.4700   95.9920   36.9980 C.2   179  GLU179      0.2260
     72  O         13.9110   94.9170   36.7710 O.2   179  GLU179     -0.2867
     73  CB        14.2400   97.0530   39.2630 C.3   179  GLU179      0.0388
     74  CG        14.8240   97.3390   40.6360 C.3   179  GLU179      0.1160
     75  CD        13.8540   98.0650   41.5270 C.2   179  GLU179      0.3649
     76  OE1       13.2280   99.0350   41.0570 O.co2 179  GLU179     -0.2457
     77  OE2       13.7190   97.6730   42.7040 O.co2 179  GLU179     -0.2457
     78  N         15.8960   93.0610   35.3990 N.3   182  LEU182     -0.1231
     79  CA        15.4280   91.8580   36.0850 C.3   182  LEU182      0.1693
     80  C         14.0050   91.4530   35.6850 C.2   182  LEU182      0.2591
     81  O         13.7010   90.2670   35.5390 O.2   182  LEU182     -0.2718
     82  CB        15.4540   92.0670   37.6160 C.3   182  LEU182      0.0284
     83  CG        16.8480   92.3380   38.2220 C.3   182  LEU182      0.0019
     84  CD1       16.6870   92.7130   39.6940 C.3   182  LEU182      0.0001
     85  CD2       17.7350   91.1180   38.0520 C.3   182  LEU182      0.0001
     86  N         13.1280   92.4360   35.5210 N.am  183  VAL183     -0.1980
     87  CA        11.7540   92.1350   35.1380 C.3   183  VAL183      0.1595
     88  C         11.7240   91.5270   33.7630 C.2   183  VAL183      0.2287
     89  O         11.0670   90.5110   33.5400 O.2   183  VAL183     -0.2864
     90  CB        10.8660   93.4030   35.1490 C.3   183  VAL183      0.0276
     91  CG1        9.4380   93.0580   34.6580 C.3   183  VAL183      0.0022
     92  CG2       10.7500   93.9480   36.5830 C.3   183  VAL183      0.0022
     93  N         13.1770   87.9970   33.6750 N.3   186  HIS186     -0.1226
     94  CA        12.1680   87.1260   34.2770 C.3   186  HIS186      0.1752
     95  C         11.0110   86.7730   33.3170 C.2   186  HIS186      0.2595
     96  O         10.6580   85.5970   33.1650 O.2   186  HIS186     -0.2718
     97  CB        11.6370   87.8260   35.5340 C.3   186  HIS186      0.0759
     98  CG        10.5640   87.0770   36.2600 C.ar  186  HIS186      0.0818
     99  ND1       10.7780   86.4810   37.4850 N.ar  186  HIS186     -0.2268
    100  CD2        9.2510   86.9010   35.9810 C.ar  186  HIS186      0.1154
    101  CE1        9.6430   85.9760   37.9320 C.ar  186  HIS186      0.1986
    102  NE2        8.7000   86.2170   37.0390 N.ar  186  HIS186     -0.2212
    103  N         10.4260   87.7880   32.6830 N.am  187  GLU187     -0.1979
    104  CA         9.3170   87.5690   31.7510 C.3   187  GLU187      0.1602
    105  C          9.7850   86.7810   30.5420 C.2   187  GLU187      0.2287
    106  O          9.1140   85.8470   30.0970 O.2   187  GLU187     -0.2864
    107  CB         8.6870   88.9230   31.3410 C.3   187  GLU187      0.0415
    108  CG         8.0640   89.7050   32.5220 C.3   187  GLU187      0.1163
    109  CD         7.1440   88.8400   33.3980 C.2   187  GLU187      0.3649
    110  OE1        6.5370   87.8850   32.8760 O.co2 187  GLU187     -0.2457
    111  OE2        7.0160   89.1320   34.6050 O.co2 187  GLU187     -0.2457
    112  N         10.0590   83.2650   31.5230 N.3   190  HIS190     -0.1241
    113  CA         8.8290   82.4920   31.4210 C.3   190  HIS190      0.1621
    114  C          8.6770   82.0100   29.9820 C.2   190  HIS190      0.2264
    115  O          8.3940   80.8380   29.7400 O.2   190  HIS190     -0.2867
    116  CB         7.5980   83.3450   31.7620 C.3   190  HIS190      0.0745
    117  CG         7.3780   83.5450   33.2310 C.ar  190  HIS190      0.0817
    118  ND1        7.3620   82.4990   34.1280 N.ar  190  HIS190     -0.2268
    119  CD2        7.1060   84.6600   33.9450 C.ar  190  HIS190      0.1154
    120  CE1        7.0840   82.9620   35.3340 C.ar  190  HIS190      0.1986
    121  NE2        6.9240   84.2690   35.2530 N.ar  190  HIS190     -0.2212
    122  N          8.0990   79.8290   38.0090 N.3   196  HIS196     -0.1241
    123  CA         8.6260   80.4270   39.2300 C.3   196  HIS196      0.1621
    124  C          9.4160   79.4100   40.0460 C.2   196  HIS196      0.2264
    125  O          9.1610   78.2080   39.9720 O.2   196  HIS196     -0.2867
    126  CB         7.4920   81.0120   40.0730 C.3   196  HIS196      0.0745
    127  CG         6.8590   82.2300   39.4750 C.ar  196  HIS196      0.0817
    128  ND1        5.5570   82.5970   39.7370 N.ar  196  HIS196     -0.2268
    129  CD2        7.3500   83.1640   38.6270 C.ar  196  HIS196      0.1154
    130  CE1        5.2730   83.7060   39.0770 C.ar  196  HIS196      0.1986
    131  NE2        6.3440   84.0700   38.3960 N.ar  196  HIS196     -0.2212
    132  N         16.4460   84.9430   39.8190 N.3   215  VAL215     -0.1245
    133  CA        15.5540   85.8060   39.0540 C.3   215  VAL215      0.1561
    134  C         14.0950   85.3490   38.8720 C.2   215  VAL215      0.2260
    135  O         13.2040   86.1890   38.7640 O.2   215  VAL215     -0.2867
    136  CB        16.1700   86.1280   37.6630 C.3   215  VAL215      0.0252
    137  CG1       16.0210   84.9340   36.7250 C.3   215  VAL215      0.0019
    138  CG2       15.5800   87.4280   37.1350 C.3   215  VAL215      0.0019
    139  N         12.1180   84.0570   41.0360 N.3   217  TYR217     -0.1228
    140  CA        11.3710   84.0120   42.2840 C.3   217  TYR217      0.1721
    141  C         10.0880   84.8040   42.0240 C.2   217  TYR217      0.2437
    142  O         10.1230   85.8420   41.3610 O.2   217  TYR217     -0.2733
    143  CB        12.1760   84.6560   43.4320 C.3   217  TYR217      0.0547
    144  CG        11.6270   84.3140   44.8010 C.ar  217  TYR217     -0.0200
    145  CD1       11.6320   82.9960   45.2650 C.ar  217  TYR217     -0.0009
    146  CD2       11.0670   85.2950   45.6150 C.ar  217  TYR217     -0.0009
    147  CE1       11.0910   82.6650   46.5030 C.ar  217  TYR217      0.0417
    148  CE2       10.5240   84.9750   46.8550 C.ar  217  TYR217      0.0417
    149  CZ        10.5380   83.6590   47.2920 C.ar  217  TYR217      0.1957
    150  OH         9.9990   83.3390   48.5180 O.3   217  TYR217     -0.2866
    151  N          8.9410   84.3190   42.5360 N.am  218  PRO218     -0.2718
    152  CA         7.6320   84.9660   42.3630 C.3   218  PRO218      0.1535
    153  C          7.5530   86.3910   42.9120 C.2   218  PRO218      0.2598
    154  O          6.7630   87.2090   42.4340 O.2   218  PRO218     -0.2715
    155  CB         6.6800   83.9670   43.0220 C.3   218  PRO218      0.0310
    156  CG         7.5120   83.4120   44.1300 C.3   218  PRO218      0.0237
    157  CD         8.8270   83.1500   43.4260 C.3   218  PRO218      0.0939
    158  N          8.3600   86.6800   43.9250 N.am  219  ILE219     -0.1964
    159  CA         8.3860   88.0090   44.5200 C.3   219  ILE219      0.1727
    160  C          9.5810   88.7250   43.9300 C.2   219  ILE219      0.2616
    161  O         10.7040   88.2340   44.0130 O.2   219  ILE219     -0.2715
    162  CB         8.5370   87.9380   46.0560 C.3   219  ILE219      0.0290
    163  CG1        7.4270   87.0500   46.6570 C.3   219  ILE219      0.0022
    164  CG2        8.4300   89.3480   46.6600 C.3   219  ILE219      0.0023
    165  CD1        6.0210   87.5330   46.3550 C.3   219  ILE219      0.0001
    166  N          9.3400   89.8820   43.3240 N.am  220  ALA220     -0.1963
    167  CA        10.4000   90.6630   42.6910 C.3   220  ALA220      0.1728
    168  C         11.6590   90.8310   43.5290 C.2   220  ALA220      0.2616
    169  O         11.6160   91.3960   44.6200 O.2   220  ALA220     -0.2715
    170  CB         9.8860   92.0640   42.3230 C.3   220  ALA220      0.0334
    171  N         12.7810   90.3380   43.0110 N.am  221  VAL221     -0.1977
    172  CA        14.0600   90.4570   43.7050 C.3   221  VAL221      0.1596
    173  C         14.5320   91.9000   43.5960 C.2   221  VAL221      0.2287
    174  O         14.1510   92.6170   42.6690 O.2   221  VAL221     -0.2864
    175  CB        15.1420   89.5270   43.0890 C.3   221  VAL221      0.0276
    176  CG1       14.7680   88.0570   43.3210 C.3   221  VAL221      0.0022
    177  CG2       15.3030   89.8210   41.5800 C.3   221  VAL221      0.0022
@<TRIPOS>BOND
     1   115   114    2
     2    68    65    1
     3    19    18    2
     4   114   113    1
     5    66    65    1
     6    66    67    2
     7    65    64    1
     8   106   105    2
     9    59    58    2
    10   105   104    1
    11    18    17    1
    12   107   104    1
    13   107   108    1
    14    64    58   am
    15   113   112    1
    16   113   116    1
    17    58    57    1
    18   104   103    1
    19    12    11    2
    20   116   117    1
    21    23    24    1
    22    23    22    1
    23    21    22    1
    24    21    20    1
    25    17    20    1
    26    17    16    1
    27     4     3    2
    28   108   109    1
    29    63    61    1
    30   103    95   am
    31    60    57    1
    32    60    61    1
    33    57    56    1
    34    11    16   am
    35    11    10    1
    36    61    62    1
    37   110   109   ar
    38    56    54   am
    39    96    95    2
    40   117   119   ar
    41   117   118   ar
    42    95    94    1
    43   109   111   ar
    44    89    88    2
    45    93    94    1
    46     3     9   am
    47     3     2    1
    48    88    87    1
    49    10     9    1
    50    10    13    1
    51     8     6   ar
    52   119   121   ar
    53     1     2    1
    54   118   120   ar
    55    15    13    1
    56    54    53    1
    57    54    55    2
    58    53    52    1
    59    94    97    1
    60     5     2    1
    61     5     6    1
    62    91    90    1
    63     6     7   ar
    64    47    46    2
    65    13    14    1
    66    87    90    1
    67    87    86    1
    68    90    92    1
    69   121   120   ar
    70    78    79    1
    71    86    80   am
    72    97    98    1
    73    81    80    2
    74    52    46   am
    75    80    79    1
    76    46    45    1
    77   100    98   ar
    78   100   102   ar
    79    79    82    1
    80    98    99   ar
    81   137   136    1
    82    72    71    2
    83    71    70    1
    84   102   101   ar
    85   138   136    1
    86    45    48    1
    87    45    44    1
    88    99   101   ar
    89    82    83    1
    90    43    41    1
    91    48    49    1
    92   136   133    1
    93   122   123    1
    94    85    83    1
    95    44    39   am
    96    69    70    1
    97    83    84    1
    98    70    73    1
    99   131   129   ar
   100   131   130   ar
   101    40    39    2
   102    51    49    1
   103   129   127   ar
   104    39    38    1
   105   135   134    2
   106   134   133    1
   107    49    50    1
   108    41    38    1
   109    41    42    1
   110   133   132    1
   111   130   128   ar
   112   123   124    1
   113   123   126    1
   114    73    74    1
   115   127   128   ar
   116   127   126    1
   117    38    37    1
   118   125   124    2
   119    74    75    1
   120    37    35   am
   121   139   140    1
   122    76    75   ar
   123   142   141    2
   124    36    35    2
   125    75    77   ar
   126   177   175    1
   127    35    34    1
   128   141   140    1
   129   141   151   am
   130   140   143    1
   131   170   167    1
   132   152   151    1
   133   152   153    1
   134   152   155    1
   135   154   153    2
   136   151   157    1
   137   174   173    2
   138   167   166    1
   139   167   168    1
   140    34    33    1
   141   153   158   am
   142   171   168   am
   143   171   172    1
   144   155   156    1
   145   175   176    1
   146   175   172    1
   147    33    27   am
   148    25    26    1
   149   166   160   am
   150   157   156    1
   151   143   144    1
   152    32    31    1
   153   168   169    2
   154   173   172    1
   155    27    28    2
   156    27    26    1
   157   158   159    1
   158   160   161    2
   159   160   159    1
   160    26    29    1
   161    29    30    1
   162   159   162    1
   163   144   145   ar
   164   144   146   ar
   165    30    31    1
   166   145   147   ar
   167   146   148   ar
   168   162   163    1
   169   162   164    1
   170   165   163    1
   171   147   149   ar
   172   148   149   ar
   173   149   150    1
