@<TRIPOS>MOLECULE
tmp/2i4dB00.pdb
 112 106 0 0 0
SMALL
GASTEIGER

@<TRIPOS>ATOM
      1  N         16.8940   26.3860   28.0710 N.3    23  LEU23      -0.1245
      2  CA        16.4900   27.3490   27.0610 C.3    23  LEU23       0.1561
      3  C         14.9920   27.2750   26.7560 C.2    23  LEU23       0.2260
      4  O         14.4940   26.2230   26.3530 O.2    23  LEU23      -0.2867
      5  CB        17.2960   27.0720   25.7830 C.3    23  LEU23       0.0270
      6  CG        17.1070   27.9340   24.5360 C.3    23  LEU23       0.0019
      7  CD1       17.6610   29.3250   24.7800 C.3    23  LEU23       0.0001
      8  CD2       17.8160   27.2800   23.3570 C.3    23  LEU23       0.0001
      9  N         12.2460   27.2220   24.6290 N.3    25  ASP25      -0.1239
     10  CA        12.2430   26.9410   23.2010 C.3    25  ASP25       0.1674
     11  C         10.8610   26.7200   22.5970 C.2    25  ASP25       0.2266
     12  O         10.3230   25.6110   22.6320 O.2    25  ASP25      -0.2867
     13  CB        13.1310   25.7050   22.9920 C.3    25  ASP25       0.1410
     14  CG        13.4880   25.4530   21.5450 C.2    25  ASP25       0.3668
     15  OD1       12.8980   26.0780   20.6440 O.co2  25  ASP25      -0.2456
     16  OD2       14.3750   24.6060   21.3160 O.co2  25  ASP25      -0.2456
     17  N         10.1990   26.5010   19.5700 N.3    27  GLY27      -0.1210
     18  CA        10.3100   25.6670   18.3820 C.3    27  GLY27       0.1956
     19  C         10.3970   24.1780   18.7030 C.2    27  GLY27       0.2612
     20  O         10.5210   23.3320   17.8120 O.2    27  GLY27      -0.2717
     21  N         10.3280   23.8580   19.9880 N.am   28  ALA28      -0.1965
     22  CA        10.4000   22.4770   20.4340 C.3    28  ALA28       0.1728
     23  C          9.0430   22.0270   20.9680 C.2    28  ALA28       0.2616
     24  O          8.4600   22.6950   21.8210 O.2    28  ALA28      -0.2715
     25  CB        11.4660   22.3400   21.5260 C.3    28  ALA28       0.0334
     26  N          8.5300   20.9150   20.4430 N.am   29  ASP29      -0.1957
     27  CA         7.2570   20.3640   20.9150 C.3    29  ASP29       0.1840
     28  C          7.4560   19.8100   22.3220 C.2    29  ASP29       0.2622
     29  O          6.5960   19.9620   23.1870 O.2    29  ASP29      -0.2715
     30  CB         6.7950   19.1860   20.0460 C.3    29  ASP29       0.1450
     31  CG         6.4830   19.5710   18.6120 C.2    29  ASP29       0.3671
     32  OD1        6.3260   20.7680   18.2940 O.co2  29  ASP29      -0.2456
     33  OD2        6.3850   18.6370   17.7880 O.co2  29  ASP29      -0.2456
     34  N          8.6050   19.1660   22.5280 N.am   30  ASP30      -0.1971
     35  CA         8.9270   18.5310   23.7980 C.3    30  ASP30       0.1709
     36  C         10.1190   19.1100   24.5240 C.2    30  ASP30       0.2293
     37  O         10.9520   19.8070   23.9400 O.2    30  ASP30      -0.2864
     38  CB         9.2040   17.0480   23.5750 C.3    30  ASP30       0.1436
     39  CG         8.1750   16.3970   22.7010 C.2    30  ASP30       0.3671
     40  OD1        6.9740   16.5140   23.0010 O.co2  30  ASP30      -0.2456
     41  OD2        8.5760   15.7840   21.6980 O.co2  30  ASP30      -0.2456
     42  N         13.5840   18.5120   26.2680 N.3    32  VAL32      -0.1245
     43  CA        14.6960   17.5810   26.2000 C.3    32  VAL32       0.1561
     44  C         15.8440   18.0680   27.0710 C.2    32  VAL32       0.2260
     45  O         16.3250   19.1900   26.9150 O.2    32  VAL32      -0.2867
     46  CB        15.1810   17.3930   24.7480 C.3    32  VAL32       0.0252
     47  CG1       16.1740   16.2320   24.6650 C.3    32  VAL32       0.0019
     48  CG2       13.9960   17.1420   23.8230 C.3    32  VAL32       0.0019
     49  N         12.9180   11.2730   18.4190 N.3    47  ILE47      -0.1231
     50  CA        12.5960   12.6630   18.1180 C.3    47  ILE47       0.1692
     51  C         13.5420   13.2150   17.0590 C.2    47  ILE47       0.2593
     52  O         14.7350   12.8850   17.0340 O.2    47  ILE47      -0.2718
     53  CB        12.6380   13.5710   19.3840 C.3    47  ILE47       0.0266
     54  CG1       14.0530   13.6300   19.9720 C.3    47  ILE47       0.0019
     55  CG2       11.6530   13.0640   20.4350 C.3    47  ILE47       0.0020
     56  CD1       14.2500   14.7380   20.9940 C.3    47  ILE47       0.0001
     57  N         12.9910   14.0300   16.1650 N.am   48  GLY48      -0.1942
     58  CA        13.7950   14.6290   15.1170 C.3    48  GLY48       0.2014
     59  C         14.2120   16.0520   15.4270 C.2    48  GLY48       0.2639
     60  O         13.4630   16.8190   16.0280 O.2    48  GLY48      -0.2714
     61  N         15.4210   16.3990   15.0080 N.am   49  GLY49      -0.1939
     62  CA        15.9340   17.7370   15.2270 C.3    49  GLY49       0.2014
     63  C         16.3880   18.3200   13.9030 C.2    49  GLY49       0.2638
     64  O         16.0280   17.8120   12.8380 O.2    49  GLY49      -0.2714
     65  N         17.2110   19.3600   13.9600 N.am   50  ILE50      -0.1977
     66  CA        17.6850   19.9950   12.7440 C.3    50  ILE50       0.1596
     67  C         18.6870   19.1070   11.9980 C.2    50  ILE50       0.2287
     68  O         18.7220   19.1010   10.7680 O.2    50  ILE50      -0.2864
     69  CB        18.2960   21.3860   13.0400 C.3    50  ILE50       0.0276
     70  CG1       18.2310   22.2610   11.7870 C.3    50  ILE50       0.0022
     71  CG2       19.7230   21.2490   13.5550 C.3    50  ILE50       0.0022
     72  CD1       18.7230   23.6800   11.9820 C.3    50  ILE50       0.0001
     73  N         17.4760   12.4620   13.5060 N.3    53  PHE53      -0.1241
     74  CA        16.8170   11.8540   14.6540 C.3    53  PHE53       0.1605
     75  C         17.7850   11.3120   15.6970 C.2    53  PHE53       0.2264
     76  O         18.9490   11.0360   15.4000 O.2    53  PHE53      -0.2867
     77  CB        15.8610   10.7480   14.1910 C.3    53  PHE53       0.0534
     78  CG        14.6630   11.2580   13.4340 C.ar   53  PHE53      -0.0203
     79  CD1       14.7600   11.5870   12.0810 C.ar   53  PHE53      -0.0042
     80  CD2       13.4380   11.4240   14.0780 C.ar   53  PHE53      -0.0042
     81  CE1       13.6530   12.0790   11.3790 C.ar   53  PHE53      -0.0003
     82  CE2       12.3250   11.9130   13.3880 C.ar   53  PHE53      -0.0003
     83  CZ        12.4350   12.2410   12.0350 C.ar   53  PHE53      -0.0000
     84  N         21.4240   16.2510   23.7300 N.3    80  THR80      -0.1204
     85  CA        20.9770   17.5420   23.2310 C.3    80  THR80       0.1979
     86  C         22.0800   18.5670   23.5030 C.2    80  THR80       0.2460
     87  O         22.8170   18.4530   24.4880 O.2    80  THR80      -0.2732
     88  CB        19.6260   17.9830   23.8950 C.3    80  THR80       0.1783
     89  OG1       19.2300   19.2670   23.3900 O.3    80  THR80      -0.2211
     90  CG2       19.7540   18.0520   25.4120 C.3    80  THR80       0.0376
     91  N         22.2680   19.5250   22.5810 N.am   81  PRO81      -0.2717
     92  CA        23.2900   20.5650   22.7370 C.3    81  PRO81       0.1535
     93  C         23.1170   21.3900   24.0210 C.2    81  PRO81       0.2598
     94  O         24.0920   21.8940   24.5800 O.2    81  PRO81      -0.2715
     95  CB        23.1140   21.4100   21.4710 C.3    81  PRO81       0.0310
     96  CG        21.7090   21.1060   21.0230 C.3    81  PRO81       0.0237
     97  CD        21.6070   19.6430   21.2740 C.3    81  PRO81       0.0939
     98  N         21.8780   21.4950   24.5010 N.am   82  VAL82      -0.1978
     99  CA        21.5680   22.2300   25.7280 C.3    82  VAL82       0.1596
    100  C         20.1730   21.8310   26.2020 C.2    82  VAL82       0.2287
    101  O         19.3740   21.3190   25.4160 O.2    82  VAL82      -0.2864
    102  CB        21.6230   23.7680   25.4970 C.3    82  VAL82       0.0276
    103  CG1       20.5390   24.2000   24.5240 C.3    82  VAL82       0.0022
    104  CG2       21.5080   24.5190   26.8170 C.3    82  VAL82       0.0022
    105  N         16.4970   22.0500   26.8290 N.3    84  ILE84      -0.1245
    106  CA        15.4580   22.8560   26.1980 C.3    84  ILE84       0.1561
    107  C         14.0750   22.5630   26.7920 C.2    84  ILE84       0.2260
    108  O         13.7240   21.4070   27.0600 O.2    84  ILE84      -0.2867
    109  CB        15.4190   22.6820   24.6490 C.3    84  ILE84       0.0252
    110  CG1       15.1300   21.2280   24.2680 C.3    84  ILE84       0.0019
    111  CG2       16.7320   23.1690   24.0200 C.3    84  ILE84       0.0019
    112  CD1       15.1550   20.9770   22.7640 C.3    84  ILE84       0.0001
@<TRIPOS>BOND
     1    68    67    2
     2    81    83   ar
     3    81    79   ar
     4    70    72    1
     5    70    69    1
     6    67    66    1
     7    83    82   ar
     8    79    78   ar
     9    66    69    1
    10    66    65    1
    11    64    63    2
    12    69    71    1
    13    82    80   ar
    14    78    80   ar
    15    78    77    1
    16    73    74    1
    17    63    65   am
    18    63    62    1
    19    77    74    1
    20    74    75    1
    21    61    62    1
    22    61    59   am
    23    58    59    1
    24    58    57    1
    25    76    75    2
    26    59    60    2
    27    57    51   am
    28    52    51    2
    29    51    50    1
    30    33    31   ar
    31    20    19    2
    32    50    49    1
    33    50    53    1
    34    32    31   ar
    35    18    19    1
    36    18    17    1
    37    31    30    1
    38    19    21   am
    39    53    54    1
    40    53    55    1
    41    54    56    1
    42    21    22    1
    43    30    27    1
    44    22    23    1
    45    22    25    1
    46    26    27    1
    47    26    23   am
    48    15    14   ar
    49    27    28    1
    50    23    24    2
    51    96    97    1
    52    96    95    1
    53    97    91    1
    54    16    14   ar
    55    95    92    1
    56    14    13    1
    57    41    39   ar
    58    28    34   am
    59    28    29    2
    60    34    35    1
    61    91    92    1
    62    91    86   am
    63    11    12    2
    64    11    10    1
    65    39    40   ar
    66    39    38    1
    67    92    93    1
    68   112   110    1
    69    13    10    1
    70    10     9    1
    71    85    86    1
    72    85    84    1
    73    85    88    1
    74     8     6    1
    75    89    88    1
    76    86    87    2
    77    38    35    1
    78    35    36    1
    79    48    46    1
    80    88    90    1
    81    37    36    2
    82   111   109    1
    83    93    98   am
    84    93    94    2
    85   110   109    1
    86    98    99    1
    87   103   102    1
    88     6     7    1
    89     6     5    1
    90   109   106    1
    91    47    46    1
    92    46    43    1
    93   101   100    2
    94   102    99    1
    95   102   104    1
    96    99   100    1
    97     5     2    1
    98   106   107    1
    99   106   105    1
   100    43    42    1
   101    43    44    1
   102     4     3    2
   103     3     2    1
   104   107   108    2
   105    45    44    2
   106     2     1    1
