@<TRIPOS>MOLECULE
tmp/2i4gA00.pdb
 142 135 0 0 0
SMALL
GASTEIGER

@<TRIPOS>ATOM
      1  N         -9.2260   35.0470   21.6010 N.3    38  ARG38      -0.1245
      2  CA        -8.8430   35.3830   22.9820 C.3    38  ARG38       0.1563
      3  C        -10.0470   35.6840   23.8680 C.2    38  ARG38       0.2260
      4  O         -9.8970   36.0440   25.0380 O.2    38  ARG38      -0.2867
      5  CB        -7.8350   36.5450   23.0490 C.3    38  ARG38       0.0307
      6  CG        -6.5970   36.3950   22.1630 C.3    38  ARG38       0.0489
      7  CD        -5.6450   35.3150   22.6480 C.3    38  ARG38       0.2205
      8  NE        -4.2570   35.6450   22.3430 N.pl3  38  ARG38      -0.0865
      9  CZ        -3.4890   36.4420   23.0790 C.cat  38  ARG38       0.5346
     10  NH1       -3.9660   37.0140   24.1750 N.pl3  38  ARG38       0.1354
     11  NH2       -2.2370   36.6810   22.7130 N.pl3  38  ARG38       0.1354
     12  N          3.9760   25.6300   31.2680 N.3    56  TYR56      -0.1241
     13  CA         3.9210   27.0770   31.4450 C.3    56  TYR56       0.1605
     14  C          2.5330   27.4500   31.9430 C.2    56  TYR56       0.2264
     15  O          1.5630   27.1910   31.2520 O.2    56  TYR56      -0.2867
     16  CB         4.1880   27.7210   30.1020 C.3    56  TYR56       0.0534
     17  CG         5.5580   27.3590   29.5390 C.ar   56  TYR56      -0.0201
     18  CD1        6.7160   27.6700   30.1960 C.ar   56  TYR56      -0.0009
     19  CD2        5.6360   26.6740   28.3290 C.ar   56  TYR56      -0.0009
     20  CE1        7.9690   27.3460   29.6480 C.ar   56  TYR56       0.0417
     21  CE2        6.8720   26.3230   27.7910 C.ar   56  TYR56       0.0417
     22  CZ         8.0300   26.6340   28.4520 C.ar   56  TYR56       0.1957
     23  OH         9.2610   26.3100   27.8900 O.3    56  TYR56      -0.2866
     24  N          0.9630   30.0150   32.1110 N.3    58  ASN58      -0.1225
     25  CA         0.2950   30.9710   31.2530 C.3    58  ASN58       0.1785
     26  C         -0.0400   30.5100   29.8330 C.2    58  ASN58       0.2597
     27  O         -0.5970   31.3060   29.0540 O.2    58  ASN58      -0.2718
     28  CB         1.0890   32.2660   31.1910 C.3    58  ASN58       0.1169
     29  CG         2.3840   32.1170   30.4350 C.2    58  ASN58       0.2627
     30  OD1        3.0900   31.1380   30.6080 O.2    58  ASN58      -0.2716
     31  ND2        2.6690   33.0630   29.5570 N.am   58  ASN58      -0.0877
     32  N          0.3150   29.2620   29.5030 N.am   59  ILE59      -0.1980
     33  CA         0.0290   28.7060   28.1760 C.3    59  ILE59       0.1595
     34  C         -0.8650   27.4990   28.3690 C.2    59  ILE59       0.2287
     35  O         -0.4180   26.4170   28.7220 O.2    59  ILE59      -0.2864
     36  CB         1.2750   28.2950   27.3760 C.3    59  ILE59       0.0276
     37  CG1        2.2790   29.4430   27.2830 C.3    59  ILE59       0.0022
     38  CG2        0.8050   27.8310   25.9710 C.3    59  ILE59       0.0022
     39  CD1        1.8280   30.6140   26.4940 C.3    59  ILE59       0.0001
     40  N         18.0070   26.1460   29.1200 N.3   128  ARG128     -0.1245
     41  CA        16.6850   26.1280   29.7470 C.3   128  ARG128      0.1563
     42  C         16.0780   24.8210   29.3010 C.2   128  ARG128      0.2260
     43  O         16.2010   24.4720   28.1270 O.2   128  ARG128     -0.2867
     44  CB        15.8100   27.2570   29.1940 C.3   128  ARG128      0.0307
     45  CG        14.6490   27.6120   30.1180 C.3   128  ARG128      0.0489
     46  CD        13.3820   26.7990   29.8470 C.3   128  ARG128      0.2205
     47  NE        12.6910   26.4360   31.0860 N.pl3 128  ARG128     -0.0865
     48  CZ        11.8180   27.2160   31.7180 C.cat 128  ARG128      0.5346
     49  NH1       11.5160   28.4120   31.2250 N.pl3 128  ARG128      0.1354
     50  NH2       11.2380   26.8040   32.8420 N.pl3 128  ARG128      0.1354
     51  N         13.3100   22.5780   27.9600 N.3   130  LYS130     -0.1245
     52  CA        12.1640   22.9290   27.1120 C.3   130  LYS130      0.1561
     53  C         11.1810   21.7920   26.9280 C.2   130  LYS130      0.2260
     54  O         10.0000   22.0250   26.6400 O.2   130  LYS130     -0.2867
     55  CB        12.6230   23.4540   25.7310 C.3   130  LYS130      0.0271
     56  CG        13.4810   24.7330   25.7780 C.3   130  LYS130      0.0035
     57  CD        12.6800   26.0390   25.8930 C.3   130  LYS130      0.0206
     58  CE        13.3350   27.1660   25.0660 C.3   130  LYS130      0.1093
     59  NZ        13.0790   28.4980   25.6810 N.3   130  LYS130     -0.1314
     60  N         13.9190   28.4270   19.3050 N.3   189  ASP189     -0.1225
     61  CA        12.7230   28.9410   19.9840 C.3   189  ASP189      0.1805
     62  C         12.5760   30.4160   19.6370 C.2   189  ASP189      0.2597
     63  O         13.5710   31.1520   19.5410 O.2   189  ASP189     -0.2718
     64  CB        12.7780   28.7550   21.5050 C.3   189  ASP189      0.1424
     65  CG        11.4180   28.9310   22.1640 C.2   189  ASP189      0.3668
     66  OD1       10.4430   29.1560   21.4250 O.co2 189  ASP189     -0.2456
     67  OD2       11.3220   28.8510   23.4100 O.co2 189  ASP189     -0.2456
     68  N         11.3370   30.8370   19.4120 N.am  190  HIS190     -0.1975
     69  CA        11.0850   32.2280   19.0790 C.3   190  HIS190      0.1656
     70  C         11.6160   32.6150   17.6970 C.2   190  HIS190      0.2291
     71  O         11.5190   33.7760   17.2990 O.2   190  HIS190     -0.2864
     72  CB        11.7160   33.1050   20.1730 C.3   190  HIS190      0.0771
     73  CG        11.0710   34.4450   20.3230 C.ar  190  HIS190      0.0820
     74  ND1        9.8650   34.6210   20.9690 N.ar  190  HIS190     -0.2267
     75  CD2       11.4700   35.6760   19.9230 C.ar  190  HIS190      0.1154
     76  CE1        9.5430   35.9040   20.9470 C.ar  190  HIS190      0.1986
     77  NE2       10.4980   36.5650   20.3170 N.ar  190  HIS190     -0.2212
     78  N          6.0350   21.6090   20.4940 N.3   223  CYS223     -0.1221
     79  CA         7.3410   22.1990   20.6530 C.3   223  CYS223      0.1808
     80  C          7.5270   22.2640   22.1540 C.2   223  CYS223      0.2602
     81  O          7.4020   21.2210   22.8370 O.2   223  CYS223     -0.2717
     82  CB         7.3970   23.5570   19.9340 C.3   223  CYS223      0.0970
     83  SG         5.8420   24.4870   20.0900 S.3   223  CYS223     -0.0800
     84  N          7.8220   23.4470   22.6990 N.am  224  SER224     -0.1938
     85  CA         7.9340   23.5440   24.1680 C.3   224  SER224      0.2055
     86  C          6.5630   23.9280   24.7210 C.2   224  SER224      0.2642
     87  O          6.0320   23.2310   25.5800 O.2   224  SER224     -0.2714
     88  CB         9.0120   24.5520   24.6340 C.3   224  SER224      0.2130
     89  OG         9.2390   24.4210   26.0370 O.3   224  SER224     -0.2179
     90  N          6.0130   25.0430   24.2460 N.am  225  ALA225     -0.1977
     91  CA         4.7230   25.4870   24.7530 C.3   225  ALA225      0.1597
     92  C          3.5660   25.0040   23.9050 C.2   225  ALA225      0.2287
     93  O          2.4180   25.1550   24.3120 O.2   225  ALA225     -0.2864
     94  CB         4.6980   27.0290   24.8540 C.3   225  ALA225      0.0319
     95  N          2.9500   26.4190   20.8520 N.3   227  VAL227     -0.1231
     96  CA         2.4640   27.7170   20.3580 C.3   227  VAL227      0.1692
     97  C          3.1660   28.1920   19.0710 C.2   227  VAL227      0.2593
     98  O          2.5360   28.2920   18.0170 O.2   227  VAL227     -0.2718
     99  CB         2.5410   28.8010   21.4600 C.3   227  VAL227      0.0266
    100  CG1        1.9850   30.1140   20.8850 C.3   227  VAL227      0.0020
    101  CG2        1.7210   28.3860   22.6620 C.3   227  VAL227      0.0020
    102  N          4.4570   28.4830   19.1310 N.am  228  GLY228     -0.1942
    103  CA         5.0520   29.2640   18.0490 C.3   228  GLY228      0.2014
    104  C          5.4940   28.3360   16.9520 C.2   228  GLY228      0.2638
    105  O          5.0780   28.4630   15.7970 O.2   228  GLY228     -0.2714
    106  N          6.3690   27.4070   17.3290 N.am  229  ARG229     -0.1977
    107  CA         6.9490   26.5040   16.3630 C.3   229  ARG229      0.1597
    108  C          5.9030   25.5140   15.8910 C.2   229  ARG229      0.2287
    109  O          5.8160   25.2750   14.6950 O.2   229  ARG229     -0.2864
    110  CB         8.1970   25.8700   16.9330 C.3   229  ARG229      0.0334
    111  CG         9.2230   26.9630   17.1790 C.3   229  ARG229      0.0492
    112  CD        10.4680   26.3770   17.7980 C.3   229  ARG229      0.2205
    113  NE        10.2190   26.1780   19.2360 N.pl3 229  ARG229     -0.0865
    114  CZ        11.1050   25.6840   20.0940 C.cat 229  ARG229      0.5346
    115  NH1       12.2980   25.3100   19.6420 N.pl3 229  ARG229      0.1354
    116  NH2       10.7890   25.5480   21.3870 N.pl3 229  ARG229      0.1354
    117  N         -4.1580   29.1160   21.9410 N.3   263  VAL263     -0.1231
    118  CA        -3.7100   30.4870   22.1720 C.3   263  VAL263      0.1692
    119  C         -2.5940   30.9060   21.2350 C.2   263  VAL263      0.2592
    120  O         -1.4950   30.3460   21.2700 O.2   263  VAL263     -0.2718
    121  CB        -3.2840   30.7480   23.6390 C.3   263  VAL263      0.0266
    122  CG1       -2.1470   29.8250   24.0980 C.3   263  VAL263      0.0020
    123  CG2       -2.9440   32.2190   23.8190 C.3   263  VAL263      0.0020
    124  N         -2.9080   31.9020   20.4040 N.am  264  HIS264     -0.1976
    125  CA        -1.9220   32.6770   19.6190 C.3   264  HIS264      0.1656
    126  C         -0.9470   31.7610   18.8710 C.2   264  HIS264      0.2291
    127  O          0.2420   32.0200   18.7730 O.2   264  HIS264     -0.2864
    128  CB        -1.2300   33.6920   20.5490 C.3   264  HIS264      0.0771
    129  CG        -0.5060   34.8120   19.8540 C.ar  264  HIS264      0.0820
    130  ND1        0.5590   34.6040   19.0020 N.ar  264  HIS264     -0.2267
    131  CD2       -0.6690   36.1560   19.9300 C.ar  264  HIS264      0.1154
    132  CE1        0.9930   35.7680   18.5480 C.ar  264  HIS264      0.1986
    133  NE2        0.2820   36.7290   19.1120 N.ar  264  HIS264     -0.2212
    134  N          3.9650   32.3820   16.9750 N.3   267  GLN267     -0.1245
    135  CA         4.2600   33.2290   18.1320 C.3   267  GLN267      0.1566
    136  C          4.7020   34.6490   17.7070 C.2   267  GLN267      0.2260
    137  O          4.3950   35.6330   18.4020 O.2   267  GLN267     -0.2867
    138  CB         5.3310   32.5580   18.9990 C.3   267  GLN267      0.0367
    139  CG         5.6940   33.3870   20.2470 C.3   267  GLN267      0.0905
    140  CD         6.9320   32.8670   20.9630 C.2   267  GLN267      0.2608
    141  OE1        7.8990   32.4410   20.3410 O.2   267  GLN267     -0.2717
    142  NE2        6.9010   32.8980   22.2880 N.am  267  GLN267     -0.0878
@<TRIPOS>BOND
     1   109   108    2
     2   105   104    2
     3   108   107    1
     4   107   110    1
     5   107   106    1
     6   110   111    1
     7   104   106   am
     8   104   103    1
     9   134   135    1
    10   111   112    1
    11    71    70    2
    12    70    69    1
    13   136   135    1
    14   136   137    2
    15   112   113    1
    16    98    97    2
    17   103   102    1
    18   135   138    1
    19   132   130   ar
    20   132   133   ar
    21   127   126    2
    22   126   125    1
    23   138   139    1
    24   130   129   ar
    25    97   102   am
    26    97    96    1
    27    69    68    1
    28    69    72    1
    29   133   131   ar
    30   113   114    2
    31    60    61    1
    32    68    62   am
    33    63    62    2
    34   125   124    1
    35   125   128    1
    36    62    61    1
    37   115   114    1
    38   129   131   ar
    39   129   128    1
    40    75    77   ar
    41    75    73   ar
    42    82    83    1
    43    82    79    1
    44    61    64    1
    45   114   116    1
    46    72    73    1
    47   139   140    1
    48    77    76   ar
    49    73    74   ar
    50   141   140    2
    51    96    95    1
    52    96    99    1
    53   124   119   am
    54    78    79    1
    55    79    80    1
    56   100    99    1
    57    76    74   ar
    58   140   142   am
    59   119   120    2
    60   119   118    1
    61    66    65   ar
    62    99   101    1
    63    64    65    1
    64     1     2    1
    65   117   118    1
    66    80    84   am
    67    80    81    2
    68     6     7    1
    69     6     5    1
    70    65    67   ar
    71   118   121    1
    72     8     7    1
    73     8     9    2
    74    84    85    1
    75    11     9    1
    76     2     5    1
    77     2     3    1
    78     9    10    1
    79   121   123    1
    80   121   122    1
    81     3     4    2
    82    92    93    2
    83    92    91    1
    84    85    88    1
    85    85    86    1
    86    90    86   am
    87    90    91    1
    88    88    89    1
    89    86    87    2
    90    91    94    1
    91    58    59    1
    92    58    57    1
    93    55    56    1
    94    55    52    1
    95    56    57    1
    96    38    36    1
    97    39    37    1
    98    54    53    2
    99    53    52    1
   100    52    51    1
   101    37    36    1
   102    36    33    1
   103    21    19   ar
   104    21    22   ar
   105    23    22    1
   106    43    42    2
   107    33    34    1
   108    33    32    1
   109    19    17   ar
   110    34    35    2
   111    22    20   ar
   112    27    26    2
   113    40    41    1
   114    44    41    1
   115    44    45    1
   116    42    41    1
   117    32    26   am
   118    17    16    1
   119    17    18   ar
   120    31    29   am
   121    20    18   ar
   122    26    25    1
   123    46    45    1
   124    46    47    1
   125    16    13    1
   126    29    30    2
   127    29    28    1
   128    47    48    2
   129    28    25    1
   130    49    48    1
   131    15    14    2
   132    25    24    1
   133    12    13    1
   134    13    14    1
   135    48    50    1
