@<TRIPOS>MOLECULE
tmp/2i4mB00.pdb
 204 194 0 0 0
SMALL
GASTEIGER

@<TRIPOS>ATOM
      1  N         29.3620   74.2300   26.0100 N.3   112  THR112     -0.1218
      2  CA        30.2290   73.2240   25.4190 C.3   112  THR112      0.1862
      3  C         29.9230   71.9290   26.1680 C.2   112  THR112      0.2287
      4  O         29.0910   71.9390   27.0780 O.2   112  THR112     -0.2866
      5  CB        31.7240   73.6210   25.4920 C.3   112  THR112      0.1770
      6  OG1       32.5280   72.6040   24.8810 O.3   112  THR112     -0.2211
      7  CG2       32.1620   73.8140   26.9280 C.3   112  THR112      0.0375
      8  N         32.3370   68.8880   26.9660 N.3   114  GLU114     -0.1245
      9  CA        33.3790   67.9450   27.4100 C.3   114  GLU114      0.1567
     10  C         32.9570   67.0240   28.5720 C.2   114  GLU114      0.2260
     11  O         33.0330   65.8020   28.4630 O.2   114  GLU114     -0.2867
     12  CB        34.6750   68.6880   27.7740 C.3   114  GLU114      0.0388
     13  CG        35.5810   69.0890   26.5960 C.3   114  GLU114      0.1160
     14  CD        35.0480   70.2510   25.7720 C.2   114  GLU114      0.3649
     15  OE1       34.1760   71.0210   26.2450 O.co2 114  GLU114     -0.2457
     16  OE2       35.5120   70.3930   24.6240 O.co2 114  GLU114     -0.2457
     17  N         26.8770   81.1650   25.2250 N.3   143  ARG143     -0.1245
     18  CA        27.9200   81.8630   25.9420 C.3   143  ARG143      0.1563
     19  C         27.4430   83.2850   26.1790 C.2   143  ARG143      0.2260
     20  O         27.1020   83.9980   25.2370 O.2   143  ARG143     -0.2867
     21  CB        29.2620   81.7850   25.2030 C.3   143  ARG143      0.0307
     22  CG        29.9070   80.4000   25.3540 C.3   143  ARG143      0.0489
     23  CD        31.3140   80.3190   24.7900 C.3   143  ARG143      0.2205
     24  NE        31.7610   78.9410   24.4960 N.pl3 143  ARG143     -0.0865
     25  CZ        32.7190   78.6120   23.6070 C.cat 143  ARG143      0.5346
     26  NH1       33.3530   79.5580   22.8920 N.pl3 143  ARG143      0.1354
     27  NH2       33.0460   77.3290   23.4220 N.pl3 143  ARG143      0.1354
     28  N         28.2870   86.2040   26.1720 N.3   145  GLU145     -0.1245
     29  CA        29.2650   87.1360   25.6430 C.3   145  GLU145      0.1567
     30  C         28.9310   88.5130   26.1990 C.2   145  GLU145      0.2260
     31  O         27.7960   88.9670   26.0900 O.2   145  GLU145     -0.2867
     32  CB        29.1620   87.1440   24.1300 C.3   145  GLU145      0.0388
     33  CG        30.1030   88.0680   23.4350 C.3   145  GLU145      0.1160
     34  CD        31.4740   87.4810   23.3340 C.2   145  GLU145      0.3649
     35  OE1       31.5820   86.2250   23.2400 O.co2 145  GLU145     -0.2457
     36  OE2       32.4430   88.2770   23.3500 O.co2 145  GLU145     -0.2457
     37  N         25.6500   87.3730   13.7630 N.3   152  VAL152     -0.1231
     38  CA        25.7930   85.9770   14.1280 C.3   152  VAL152      0.1692
     39  C         27.2080   85.6330   14.5220 C.2   152  VAL152      0.2592
     40  O         27.4540   84.5340   15.0250 O.2   152  VAL152     -0.2718
     41  CB        25.3130   85.0030   13.0220 C.3   152  VAL152      0.0266
     42  CG1       23.8490   85.2160   12.7230 C.3   152  VAL152      0.0020
     43  CG2       26.1510   85.1230   11.7670 C.3   152  VAL152      0.0020
     44  N         28.1430   86.5510   14.3200 N.am  153  MET153     -0.1965
     45  CA        29.5580   86.2330   14.5560 C.3   153  MET153      0.1736
     46  C         30.0400   86.2620   16.0030 C.2   153  MET153      0.2616
     47  O         31.0230   85.5950   16.3480 O.2   153  MET153     -0.2715
     48  CB        30.4680   87.0500   13.6500 C.3   153  MET153      0.0427
     49  CG        30.9110   86.2140   12.4760 C.3   153  MET153      0.0599
     50  SD        31.0940   87.1060   10.9410 S.3   153  MET153     -0.1393
     51  CE        32.4340   88.2560   11.3380 C.3   153  MET153      0.0692
     52  N         29.3500   87.0310   16.8400 N.am  154  ARG154     -0.1963
     53  CA        29.7200   87.1780   18.2420 C.3   154  ARG154      0.1729
     54  C         28.4550   87.3300   19.0670 C.2   154  ARG154      0.2616
     55  O         28.3420   88.2340   19.8640 O.2   154  ARG154     -0.2715
     56  CB        30.6380   88.3900   18.4270 C.3   154  ARG154      0.0348
     57  CG        31.6170   88.3030   19.6110 C.3   154  ARG154      0.0492
     58  CD        31.6990   89.6470   20.3780 C.3   154  ARG154      0.2205
     59  NE        32.8730   90.4430   20.0400 N.pl3 154  ARG154     -0.0865
     60  CZ        33.0720   91.7020   20.4300 C.cat 154  ARG154      0.5346
     61  NH1       32.1690   92.3340   21.1830 N.pl3 154  ARG154      0.1354
     62  NH2       34.1910   92.3330   20.0660 N.pl3 154  ARG154      0.1354
     63  N         27.4970   86.4310   18.8670 N.am  155  GLY155     -0.1955
     64  CA        26.2600   86.4640   19.6210 C.3   155  GLY155      0.1869
     65  C         26.3740   85.6520   20.8950 C.2   155  GLY155      0.2309
     66  O         27.4680   85.4220   21.4230 O.2   155  GLY155     -0.2863
     67  N         24.4140   80.4070   20.0100 N.3   158  PHE158     -0.1227
     68  CA        24.9490   79.9590   18.7210 C.3   158  PHE158      0.1736
     69  C         24.8870   78.4450   18.5330 C.2   158  PHE158      0.2595
     70  O         24.6600   77.6960   19.4980 O.2   158  PHE158     -0.2718
     71  CB        26.3780   80.4460   18.5360 C.3   158  PHE158      0.0547
     72  CG        27.3330   79.8870   19.5260 C.ar  158  PHE158     -0.0202
     73  CD1       28.2230   78.9080   19.1550 C.ar  158  PHE158     -0.0042
     74  CD2       27.3350   80.3360   20.8380 C.ar  158  PHE158     -0.0042
     75  CE1       29.1030   78.3850   20.0670 C.ar  158  PHE158     -0.0003
     76  CE2       28.2050   79.8070   21.7650 C.ar  158  PHE158     -0.0003
     77  CZ        29.0930   78.8330   21.3790 C.ar  158  PHE158     -0.0000
     78  N         25.0880   78.0130   17.2870 N.am  159  LEU159     -0.1966
     79  CA        24.9830   76.6210   16.9210 C.3   159  LEU159      0.1728
     80  C         26.3530   76.0560   16.5800 C.2   159  LEU159      0.2616
     81  O         27.0790   76.5970   15.7350 O.2   159  LEU159     -0.2715
     82  CB        24.0160   76.4560   15.7500 C.3   159  LEU159      0.0311
     83  CG        23.6870   75.0390   15.2320 C.3   159  LEU159      0.0022
     84  CD1       22.9670   74.1510   16.2650 C.3   159  LEU159      0.0001
     85  CD2       22.8520   75.1370   13.9410 C.3   159  LEU159      0.0001
     86  N         26.7090   74.9570   17.2280 N.am  160  MET160     -0.1977
     87  CA        28.0020   74.3570   16.9820 C.3   160  MET160      0.1605
     88  C         27.9600   72.8600   16.6990 C.2   160  MET160      0.2287
     89  O         27.1040   72.1140   17.2330 O.2   160  MET160     -0.2864
     90  CB        28.9210   74.6080   18.1560 C.3   160  MET160      0.0413
     91  CG        30.3260   74.3190   17.8020 C.3   160  MET160      0.0598
     92  SD        31.3180   74.2140   19.2580 S.3   160  MET160     -0.1393
     93  CE        31.2440   75.9320   19.7340 C.3   160  MET160      0.0692
     94  N         30.0770   70.0820   17.7990 N.3   162  ASP162     -0.1239
     95  CA        31.1700   69.7280   18.6560 C.3   162  ASP162      0.1674
     96  C         31.3020   68.2160   18.7470 C.2   162  ASP162      0.2266
     97  O         30.3400   67.5220   19.0450 O.2   162  ASP162     -0.2867
     98  CB        31.0580   70.4130   20.0340 C.3   162  ASP162      0.1410
     99  CG        29.6390   70.3760   20.6530 C.2   162  ASP162      0.3668
    100  OD1       28.6450   70.7390   19.9780 O.co2 162  ASP162     -0.2456
    101  OD2       29.5370   70.0360   21.8590 O.co2 162  ASP162     -0.2456
    102  N         33.9360   64.7740   19.9470 N.3   164  TYR164     -0.1241
    103  CA        34.7950   64.4600   21.0770 C.3   164  TYR164      0.1605
    104  C         35.3810   63.0700   20.9170 C.2   164  TYR164      0.2264
    105  O         34.6560   62.0760   20.9290 O.2   164  TYR164     -0.2867
    106  CB        34.0000   64.5380   22.3790 C.3   164  TYR164      0.0534
    107  CG        33.3380   65.8710   22.6490 C.ar  164  TYR164     -0.0201
    108  CD1       33.9580   66.8420   23.4360 C.ar  164  TYR164     -0.0009
    109  CD2       32.0740   66.1480   22.1450 C.ar  164  TYR164     -0.0009
    110  CE1       33.3280   68.0730   23.6980 C.ar  164  TYR164      0.0417
    111  CE2       31.4490   67.3720   22.3930 C.ar  164  TYR164      0.0417
    112  CZ        32.0820   68.3300   23.1530 C.ar  164  TYR164      0.1957
    113  OH        31.4430   69.5190   23.3530 O.3   164  TYR164     -0.2866
    114  N         39.2150   74.9790   27.3010 N.3   205  ILE205     -0.1245
    115  CA        39.0400   73.6080   26.7970 C.3   205  ILE205      0.1561
    116  C         40.1540   72.6820   27.2920 C.2   205  ILE205      0.2260
    117  O         39.8750   71.5300   27.6610 O.2   205  ILE205     -0.2867
    118  CB        38.9090   73.5220   25.2260 C.3   205  ILE205      0.0252
    119  CG1       37.8150   74.4630   24.6870 C.3   205  ILE205      0.0019
    120  CG2       38.6490   72.0800   24.7670 C.3   205  ILE205      0.0019
    121  CD1       36.4350   74.3160   25.3640 C.3   205  ILE205      0.0001
    122  N         37.5490   82.8880   12.8850 N.3   285  GLU285     -0.1231
    123  CA        37.6990   81.5190   13.3810 C.3   285  GLU285      0.1699
    124  C         36.3950   80.7400   13.2300 C.2   285  GLU285      0.2592
    125  O         35.4350   80.9470   13.9800 O.2   285  GLU285     -0.2718
    126  CB        38.1000   81.5240   14.8480 C.3   285  GLU285      0.0402
    127  CG        38.6780   80.2190   15.3160 C.3   285  GLU285      0.1161
    128  CD        38.2020   79.8330   16.7020 C.2   285  GLU285      0.3649
    129  OE1       38.8700   80.1890   17.6980 O.co2 285  GLU285     -0.2457
    130  OE2       37.1480   79.1750   16.8060 O.co2 285  GLU285     -0.2457
    131  N         36.3690   79.8370   12.2600 N.am  286  VAL286     -0.1966
    132  CA        35.1810   79.0400   11.9740 C.3   286  VAL286      0.1727
    133  C         35.2270   77.6530   12.6230 C.2   286  VAL286      0.2617
    134  O         34.1840   77.0010   12.7820 O.2   286  VAL286     -0.2715
    135  CB        34.9680   78.8920   10.4620 C.3   286  VAL286      0.0290
    136  CG1       34.4930   80.1810    9.8910 C.3   286  VAL286      0.0023
    137  CG2       36.2640   78.4540    9.7630 C.3   286  VAL286      0.0023
    138  N         36.4230   77.2050   12.9980 N.am  287  GLY287     -0.1940
    139  CA        36.5540   75.9240   13.6730 C.3   287  GLY287      0.2014
    140  C         37.7920   75.8350   14.5260 C.2   287  GLY287      0.2638
    141  O         38.7670   76.5110   14.2500 O.2   287  GLY287     -0.2714
    142  N         37.7560   75.0030   15.5640 N.am  288  GLN288     -0.1977
    143  CA        38.9260   74.8060   16.4190 C.3   288  GLN288      0.1601
    144  C         39.0410   73.3670   16.8480 C.2   288  GLN288      0.2287
    145  O         38.0400   72.7420   17.1460 O.2   288  GLN288     -0.2864
    146  CB        38.9180   75.7180   17.6670 C.3   288  GLN288      0.0394
    147  CG        40.3000   75.6920   18.3920 C.3   288  GLN288      0.0908
    148  CD        40.5910   76.8310   19.3720 C.2   288  GLN288      0.2608
    149  OE1       41.6750   76.8820   19.9610 O.2   288  GLN288     -0.2717
    150  NE2       39.6360   77.7370   19.5520 N.am  288  GLN288     -0.0878
    151  N         41.3880   70.5790   19.4100 N.3   290  PHE290     -0.1241
    152  CA        42.2480   70.4460   20.6050 C.3   290  PHE290      0.1605
    153  C         42.4520   68.9750   20.9680 C.2   290  PHE290      0.2264
    154  O         41.5740   68.1530   20.7470 O.2   290  PHE290     -0.2867
    155  CB        41.6390   71.0820   21.8740 C.3   290  PHE290      0.0534
    156  CG        40.7190   72.2250   21.6280 C.ar  290  PHE290     -0.0203
    157  CD1       39.5470   72.0650   20.8830 C.ar  290  PHE290     -0.0042
    158  CD2       40.9920   73.4690   22.1870 C.ar  290  PHE290     -0.0042
    159  CE1       38.6880   73.1500   20.6520 C.ar  290  PHE290     -0.0003
    160  CE2       40.1320   74.5660   21.9840 C.ar  290  PHE290     -0.0003
    161  CZ        38.9770   74.4060   21.2210 C.ar  290  PHE290     -0.0000
    162  N         38.5960   67.5090   21.5350 N.3   318  SER318     -0.1202
    163  CA        37.3150   68.0100   21.0800 C.3   318  SER318      0.2020
    164  C         37.4610   68.8400   19.8210 C.2   318  SER318      0.2619
    165  O         38.5450   69.2970   19.5000 O.2   318  SER318     -0.2717
    166  CB        36.6640   68.8200   22.1650 C.3   318  SER318      0.2103
    167  OG        37.4850   69.9100   22.4850 O.3   318  SER318     -0.2182
    168  N         36.3540   69.0190   19.1060 N.am  319  TYR319     -0.1961
    169  CA        36.3720   69.5940   17.7640 C.3   319  TYR319      0.1771
    170  C         35.0640   70.3300   17.5090 C.2   319  TYR319      0.2620
    171  O         33.9790   69.7390   17.5200 O.2   319  TYR319     -0.2715
    172  CB        36.6040   68.4910   16.7130 C.3   319  TYR319      0.0574
    173  CG        37.6070   67.4350   17.1750 C.ar  319  TYR319     -0.0198
    174  CD1       38.9730   67.5940   16.9580 C.ar  319  TYR319     -0.0009
    175  CD2       37.1940   66.3020   17.8690 C.ar  319  TYR319     -0.0009
    176  CE1       39.8980   66.6370   17.4080 C.ar  319  TYR319      0.0417
    177  CE2       38.1040   65.3600   18.3100 C.ar  319  TYR319      0.0417
    178  CZ        39.4470   65.5280   18.0720 C.ar  319  TYR319      0.1957
    179  OH        40.3460   64.5900   18.5050 O.3   319  TYR319     -0.2866
    180  N         35.1720   71.6290   17.2710 N.am  320  GLY320     -0.1954
    181  CA        34.0000   72.4540   17.0730 C.3   320  GLY320      0.1869
    182  C         34.0340   73.2480   15.7950 C.2   320  GLY320      0.2309
    183  O         35.1040   73.6240   15.2970 O.2   320  GLY320     -0.2863
    184  N         31.7780   76.4900   14.0640 N.3   322  GLY322     -0.1225
    185  CA        30.7390   77.4930   14.2900 C.3   322  GLY322      0.1811
    186  C         29.7330   77.4090   13.1750 C.2   322  GLY322      0.2280
    187  O         29.8890   78.0410   12.1200 O.2   322  GLY322     -0.2866
    188  N         26.4030   78.2990   13.0150 N.3   324  SER324     -0.1202
    189  CA        25.6790   79.5510   12.7960 C.3   324  SER324      0.2020
    190  C         26.6320   80.6840   12.4210 C.2   324  SER324      0.2618
    191  O         26.2590   81.5610   11.6480 O.2   324  SER324     -0.2717
    192  CB        24.7690   79.9090   13.9690 C.3   324  SER324      0.2103
    193  OG        25.5200   80.1330   15.1260 O.3   324  SER324     -0.2182
    194  N         27.8660   80.6450   12.9250 N.am  325  ARG325     -0.1979
    195  CA        28.8460   81.6680   12.5790 C.3   325  ARG325      0.1597
    196  C         29.2490   81.5640   11.1200 C.2   325  ARG325      0.2287
    197  O         29.5270   82.5740   10.4730 O.2   325  ARG325     -0.2864
    198  CB        30.0910   81.5670   13.4510 C.3   325  ARG325      0.0334
    199  CG        31.2100   82.4440   12.9500 C.3   325  ARG325      0.0492
    200  CD        32.4770   82.3660   13.7550 C.3   325  ARG325      0.2205
    201  NE        32.3020   82.9550   15.0730 N.pl3 325  ARG325     -0.0865
    202  CZ        33.2550   82.9600   16.0000 C.cat 325  ARG325      0.5346
    203  NH1       34.4420   82.4350   15.7320 N.pl3 325  ARG325      0.1354
    204  NH2       33.0320   83.4930   17.1910 N.pl3 325  ARG325      0.1354
@<TRIPOS>BOND
     1   137   135    1
     2   136   135    1
     3   135   132    1
     4   197   196    2
     5    50    51    1
     6    50    49    1
     7   196   195    1
     8   191   190    2
     9    43    41    1
    10   132   131    1
    11   132   133    1
    12   187   186    2
    13   131   124   am
    14   190   189    1
    15   190   194   am
    16    49    48    1
    17   195   194    1
    18   195   198    1
    19   133   134    2
    20   133   138   am
    21    42    41    1
    22   189   188    1
    23   189   192    1
    24   122   123    1
    25   199   198    1
    26   199   200    1
    27   138   139    1
    28    41    38    1
    29   186   185    1
    30   124   123    1
    31   124   125    2
    32   123   126    1
    33    48    45    1
    34   139   140    1
    35   200   201    1
    36    37    38    1
    37    85    83    1
    38   192   193    1
    39   184   185    1
    40    38    39    1
    41   141   140    2
    42    44    39   am
    43    44    45    1
    44    39    40    2
    45   140   142   am
    46    45    46    1
    47   126   127    1
    48   201   202    2
    49    83    82    1
    50    83    84    1
    51   183   182    2
    52   127   128    1
    53   142   143    1
    54   203   202    1
    55    81    80    2
    56    82    79    1
    57   182   181    1
    58   202   204    1
    59    46    47    2
    60    46    52   am
    61   143   144    1
    62   143   146    1
    63    80    79    1
    64    80    86   am
    65    88    87    1
    66    88    89    2
    67   128   130   ar
    68   128   129   ar
    69   172   173    1
    70   172   169    1
    71    52    53    1
    72   144   145    2
    73    79    78    1
    74   174   173   ar
    75   174   176   ar
    76    87    86    1
    77    87    90    1
    78   181   180    1
    79   173   175   ar
    80   180   170   am
    81    78    69   am
    82   176   178   ar
    83   170   171    2
    84   170   169    1
    85   146   147    1
    86   169   168    1
    87    94    95    1
    88    91    90    1
    89    91    92    1
    90   175   177   ar
    91   178   177   ar
    92   178   179    1
    93    53    56    1
    94    53    54    1
    95   147   148    1
    96    56    57    1
    97    69    68    1
    98    69    70    2
    99    71    68    1
   100    71    72    1
   101    95    96    1
   102    95    98    1
   103    68    67    1
   104    96    97    2
   105    63    54   am
   106    63    64    1
   107    54    55    2
   108   168   164   am
   109    73    72   ar
   110    73    75   ar
   111    92    93    1
   112   148   150   am
   113   148   149    2
   114   151   152    1
   115   165   164    2
   116    72    74   ar
   117    57    58    1
   118    64    65    1
   119   164   163    1
   120   102   103    1
   121   100    99   ar
   122    98    99    1
   123    59    58    1
   124    59    60    2
   125    62    60    1
   126    75    77   ar
   127    60    61    1
   128   152   153    1
   129   152   155    1
   130   159   157   ar
   131   159   161   ar
   132    99   101   ar
   133   154   153    2
   134    74    76   ar
   135   157   156   ar
   136    65    66    2
   137   104   105    2
   138   104   103    1
   139   103   106    1
   140   163   162    1
   141   163   166    1
   142   161   160   ar
   143    77    76   ar
   144   156   155    1
   145   156   158   ar
   146   160   158   ar
   147   109   111   ar
   148   109   107   ar
   149   166   167    1
   150   106   107    1
   151   111   112   ar
   152   107   108   ar
   153    26    25    1
   154   112   113    1
   155   112   110   ar
   156    35    34   ar
   157    34    36   ar
   158    34    33    1
   159    27    25    1
   160    33    32    1
   161   108   110   ar
   162    25    24    2
   163    32    29    1
   164    24    23    1
   165    16    14   ar
   166   119   118    1
   167   119   121    1
   168   120   118    1
   169    23    22    1
   170     6     5    1
   171    21    22    1
   172    21    18    1
   173    17    18    1
   174   118   115    1
   175    20    19    2
   176     2     5    1
   177     2     1    1
   178     2     3    1
   179     5     7    1
   180    29    28    1
   181    29    30    1
   182    14    15   ar
   183    14    13    1
   184    18    19    1
   185    31    30    2
   186     3     4    2
   187    13    12    1
   188   115   116    1
   189   115   114    1
   190     8     9    1
   191   116   117    2
   192     9    12    1
   193     9    10    1
   194    11    10    2
