@<TRIPOS>MOLECULE
tmp/2i4nC00.pdb
 208 199 0 0 0
SMALL
GASTEIGER

@<TRIPOS>ATOM
      1  N         20.7370   25.9340  -38.7000 N.3   113  THR113     -0.1218
      2  CA        19.7860   24.8940  -38.3700 C.3   113  THR113      0.1862
      3  C         18.5850   24.9270  -39.3390 C.2   113  THR113      0.2287
      4  O         18.5230   25.7590  -40.2330 O.2   113  THR113     -0.2866
      5  CB        19.3350   24.9860  -36.9110 C.3   113  THR113      0.1770
      6  OG1       18.7510   23.7360  -36.5220 O.3   113  THR113     -0.2211
      7  CG2       18.3260   26.1170  -36.7120 C.3   113  THR113      0.0375
      8  N         14.8240   24.0520  -38.6410 N.3   115  GLU115     -0.1245
      9  CA        13.4090   23.9940  -38.2320 C.3   115  GLU115      0.1567
     10  C         12.4420   24.5960  -39.2770 C.2   115  GLU115      0.2260
     11  O         11.5290   23.9110  -39.7490 O.2   115  GLU115     -0.2867
     12  CB        13.1920   24.6230  -36.8460 C.3   115  GLU115      0.0388
     13  CG        13.7010   23.7860  -35.6860 C.3   115  GLU115      0.1160
     14  CD        15.2300   23.8870  -35.4740 C.2   115  GLU115      0.3649
     15  OE1       15.8680   24.7940  -36.0510 O.co2 115  GLU115     -0.2457
     16  OE2       15.8010   23.0560  -34.7260 O.co2 115  GLU115     -0.2457
     17  N         27.7780   28.2430  -37.8080 N.3   144  ARG144     -0.1245
     18  CA        27.4470   29.1500  -36.7550 C.3   144  ARG144      0.1563
     19  C         28.6820   29.9950  -36.5310 C.2   144  ARG144      0.2260
     20  O         29.7100   29.4910  -36.0900 O.2   144  ARG144     -0.2867
     21  CB        27.0310   28.3750  -35.5190 C.3   144  ARG144      0.0307
     22  CG        25.6300   27.7970  -35.6420 C.3   144  ARG144      0.0489
     23  CD        25.1760   27.1860  -34.3500 C.3   144  ARG144      0.2205
     24  NE        23.8990   26.4750  -34.4720 N.pl3 144  ARG144     -0.0865
     25  CZ        23.4950   25.4870  -33.6620 C.cat 144  ARG144      0.5346
     26  NH1       24.2740   25.0590  -32.6760 N.pl3 144  ARG144      0.1354
     27  NH2       22.3140   24.9060  -33.8410 N.pl3 144  ARG144      0.1354
     28  N         30.7610   31.5440  -34.6400 N.3   146  GLU146     -0.1245
     29  CA        31.0170   31.5540  -33.2080 C.3   146  GLU146      0.1567
     30  C         32.0010   32.6590  -32.8940 C.2   146  GLU146      0.2260
     31  O         32.9360   32.8860  -33.6770 O.2   146  GLU146     -0.2867
     32  CB        31.5810   30.2020  -32.7550 C.3   146  GLU146      0.0388
     33  CG        30.9660   29.6900  -31.4420 C.3   146  GLU146      0.1160
     34  CD        29.5110   29.2080  -31.6000 C.2   146  GLU146      0.3649
     35  OE1       29.2730   28.1840  -32.3010 O.co2 146  GLU146     -0.2457
     36  OE2       28.5990   29.8490  -31.0170 O.co2 146  GLU146     -0.2457
     37  N         37.6910   20.6140  -34.0070 N.3   153  VAL153     -0.1231
     38  CA        36.3570   20.1330  -34.3900 C.3   153  VAL153      0.1692
     39  C         35.2310   20.3810  -33.3900 C.2   153  VAL153      0.2592
     40  O         34.0750   20.4730  -33.8100 O.2   153  VAL153     -0.2718
     41  CB        36.3420   18.6110  -34.7430 C.3   153  VAL153      0.0266
     42  CG1       37.3160   18.2850  -35.8350 C.3   153  VAL153      0.0020
     43  CG2       36.6080   17.7420  -33.5240 C.3   153  VAL153      0.0020
     44  N         35.5630   20.4770  -32.1000 N.am  154  MET154     -0.1965
     45  CA        34.5900   20.5490  -30.9940 C.3   154  MET154      0.1736
     46  C         33.8400   21.8670  -30.9270 C.2   154  MET154      0.2616
     47  O         32.7030   21.9050  -30.4720 O.2   154  MET154     -0.2715
     48  CB        35.2560   20.3550  -29.6280 C.3   154  MET154      0.0427
     49  CG        36.3740   19.3340  -29.5440 C.3   154  MET154      0.0599
     50  SD        36.0080   17.8600  -28.5820 S.3   154  MET154     -0.1393
     51  CE        34.5350   18.3450  -27.6890 C.3   154  MET154      0.0692
     52  N         34.4890   22.9540  -31.3250 N.am  155  ARG155     -0.1963
     53  CA        33.8060   24.2510  -31.4610 C.3   155  ARG155      0.1729
     54  C         34.3780   25.0160  -32.6430 C.2   155  ARG155      0.2616
     55  O         35.2370   25.8960  -32.4800 O.2   155  ARG155     -0.2715
     56  CB        33.9290   25.0830  -30.1970 C.3   155  ARG155      0.0348
     57  CG        33.0280   26.2950  -30.1890 C.3   155  ARG155      0.0492
     58  CD        33.0510   26.9600  -28.8000 C.3   155  ARG155      0.2205
     59  NE        34.0680   28.0140  -28.6880 N.pl3 155  ARG155     -0.0865
     60  CZ        34.6900   28.3530  -27.5560 C.cat 155  ARG155      0.5346
     61  NH1       34.4170   27.7090  -26.4160 N.pl3 155  ARG155      0.1354
     62  NH2       35.5950   29.3350  -27.5620 N.pl3 155  ARG155      0.1354
     63  N         33.9220   24.6340  -33.8370 N.am  156  GLY156     -0.1955
     64  CA        34.3410   25.2810  -35.0690 C.3   156  GLY156      0.1869
     65  C         33.1990   26.1580  -35.5180 C.2   156  GLY156      0.2309
     66  O         32.1980   26.2780  -34.8210 O.2   156  GLY156     -0.2863
     67  N         30.6570   22.9820  -39.2720 N.3   159  PHE159     -0.1241
     68  CA        30.5950   21.6830  -38.6380 C.3   159  PHE159      0.1605
     69  C         29.4490   20.8600  -39.1540 C.2   159  PHE159      0.2264
     70  O         28.5040   21.4040  -39.7020 O.2   159  PHE159     -0.2867
     71  CB        30.4770   21.8380  -37.1160 C.3   159  PHE159      0.0534
     72  CG        29.1350   22.3700  -36.6390 C.ar  159  PHE159     -0.0203
     73  CD1       28.1720   21.5120  -36.1440 C.ar  159  PHE159     -0.0042
     74  CD2       28.8580   23.7350  -36.6600 C.ar  159  PHE159     -0.0042
     75  CE1       26.9550   21.9940  -35.6790 C.ar  159  PHE159     -0.0003
     76  CE2       27.6330   24.2310  -36.1990 C.ar  159  PHE159     -0.0003
     77  CZ        26.6850   23.3510  -35.7050 C.ar  159  PHE159     -0.0000
     78  N         26.3250   18.2610  -38.6940 N.3   161  MET161     -0.1245
     79  CA        25.2820   17.8770  -37.7990 C.3   161  MET161      0.1570
     80  C         24.3070   16.9390  -38.5080 C.2   161  MET161      0.2261
     81  O         24.1180   17.0250  -39.7250 O.2   161  MET161     -0.2867
     82  CB        24.5500   19.1140  -37.3080 C.3   161  MET161      0.0387
     83  CG        23.7630   18.8600  -36.0460 C.3   161  MET161      0.0595
     84  SD        22.4140   20.0240  -35.7620 S.3   161  MET161     -0.1393
     85  CE        23.2720   21.5950  -35.5760 C.3   161  MET161      0.0692
     86  N         20.6100   16.6680  -38.1760 N.3   163  ASP163     -0.1225
     87  CA        19.3730   17.1650  -37.6310 C.3   163  ASP163      0.1805
     88  C         18.1910   16.3920  -38.1890 C.2   163  ASP163      0.2598
     89  O         18.0880   16.1710  -39.4010 O.2   163  ASP163     -0.2718
     90  CB        19.2250   18.6850  -37.7950 C.3   163  ASP163      0.1424
     91  CG        19.8390   19.2230  -39.0780 C.2   163  ASP163      0.3668
     92  OD1       20.9170   18.7500  -39.4700 O.co2 163  ASP163     -0.2456
     93  OD2       19.2590   20.1540  -39.6810 O.co2 163  ASP163     -0.2456
     94  N         17.3480   15.9400  -37.2550 N.am  164  ALA164     -0.1966
     95  CA        16.0870   15.2480  -37.5050 C.3   164  ALA164      0.1728
     96  C         14.9810   16.1090  -36.9370 C.2   164  ALA164      0.2616
     97  O         15.2040   16.8990  -36.0190 O.2   164  ALA164     -0.2715
     98  CB        16.0830   13.9280  -36.8220 C.3   164  ALA164      0.0334
     99  N         13.7870   15.9470  -37.4800 N.am  165  TYR165     -0.1974
    100  CA        12.6640   16.7890  -37.1400 C.3   165  TYR165      0.1639
    101  C         11.3800   15.9680  -37.2300 C.2   165  TYR165      0.2290
    102  O         11.1540   15.3060  -38.2420 O.2   165  TYR165     -0.2864
    103  CB        12.5900   17.9520  -38.1250 C.3   165  TYR165      0.0560
    104  CG        13.8160   18.8060  -38.2100 C.ar  165  TYR165     -0.0198
    105  CD1       14.0030   19.8640  -37.3310 C.ar  165  TYR165     -0.0009
    106  CD2       14.7680   18.5950  -39.1930 C.ar  165  TYR165     -0.0009
    107  CE1       15.1230   20.6920  -37.4090 C.ar  165  TYR165      0.0417
    108  CE2       15.9070   19.4170  -39.2900 C.ar  165  TYR165      0.0417
    109  CZ        16.0730   20.4620  -38.3840 C.ar  165  TYR165      0.1957
    110  OH        17.1800   21.2800  -38.4430 O.3   165  TYR165     -0.2866
    111  N         15.8990   27.5200  -30.1170 N.3   206  ILE206     -0.1245
    112  CA        15.0450   26.4910  -30.7440 C.3   206  ILE206      0.1561
    113  C         13.6290   26.4850  -30.1630 C.2   206  ILE206      0.2260
    114  O         12.6650   26.1270  -30.8500 O.2   206  ILE206     -0.2867
    115  CB        15.6710   25.0530  -30.5950 C.3   206  ILE206      0.0252
    116  CG1       17.0780   24.9840  -31.1690 C.3   206  ILE206      0.0019
    117  CG2       14.8030   23.9700  -31.2340 C.3   206  ILE206      0.0019
    118  CD1       17.1910   25.4470  -32.5970 C.3   206  ILE206      0.0001
    119  N         28.5620   18.0100  -24.4450 N.3   286  GLU286     -0.1231
    120  CA        27.3580   17.8820  -25.2590 C.3   286  GLU286      0.1699
    121  C         27.7230   17.2510  -26.5970 C.2   286  GLU286      0.2592
    122  O         28.6100   17.7390  -27.2980 O.2   286  GLU286     -0.2718
    123  CB        26.6920   19.2450  -25.4670 C.3   286  GLU286      0.0402
    124  CG        25.4850   19.2170  -26.4190 C.3   286  GLU286      0.1161
    125  CD        24.8000   20.5750  -26.6200 C.2   286  GLU286      0.3649
    126  OE1       25.1560   21.5400  -25.9020 O.co2 286  GLU286     -0.2457
    127  OE2       23.9010   20.6790  -27.4980 O.co2 286  GLU286     -0.2457
    128  N         27.0580   16.1400  -26.9100 N.am  287  VAL287     -0.1966
    129  CA        27.2430   15.3980  -28.1680 C.3   287  VAL287      0.1727
    130  C         25.9510   15.4150  -28.9900 C.2   287  VAL287      0.2617
    131  O         25.9340   14.9870  -30.1360 O.2   287  VAL287     -0.2715
    132  CB        27.6900   13.8930  -27.9500 C.3   287  VAL287      0.0290
    133  CG1       29.1180   13.7950  -27.4770 C.3   287  VAL287      0.0023
    134  CG2       26.7810   13.1680  -26.9990 C.3   287  VAL287      0.0023
    135  N         24.8780   15.9170  -28.3850 N.am  288  GLY288     -0.1940
    136  CA        23.5770   15.9320  -29.0100 C.3   288  GLY288      0.2014
    137  C         22.5330   16.4830  -28.0760 C.2   288  GLY288      0.2638
    138  O         22.7230   16.5030  -26.8750 O.2   288  GLY288     -0.2714
    139  N         21.4250   16.9300  -28.6440 N.am  289  GLN289     -0.1977
    140  CA        20.3620   17.5330  -27.8770 C.3   289  GLN289      0.1601
    141  C         19.0340   17.2770  -28.5680 C.2   289  GLN289      0.2287
    142  O         18.9290   17.4080  -29.7810 O.2   289  GLN289     -0.2864
    143  CB        20.5890   19.0490  -27.7010 C.3   289  GLN289      0.0394
    144  CG        19.8210   19.6550  -26.4920 C.3   289  GLN289      0.0908
    145  CD        20.1140   21.1480  -26.1630 C.2   289  GLN289      0.2608
    146  OE1       19.3440   21.7520  -25.4110 O.2   289  GLN289     -0.2717
    147  NE2       21.2090   21.7350  -26.7130 N.am  289  GLN289     -0.0878
    148  N         14.6860   17.9480  -28.4860 N.3   291  PHE291     -0.1241
    149  CA        13.8560   19.1190  -28.2540 C.3   291  PHE291      0.1605
    150  C         12.4390   18.7690  -28.5830 C.2   291  PHE291      0.2264
    151  O         12.1690   17.9440  -29.4570 O.2   291  PHE291     -0.2867
    152  CB        14.2590   20.2760  -29.1900 C.3   291  PHE291      0.0534
    153  CG        15.6630   20.7830  -28.9890 C.ar  291  PHE291     -0.0203
    154  CD1       16.7220   20.2170  -29.6740 C.ar  291  PHE291     -0.0042
    155  CD2       15.9150   21.8390  -28.1300 C.ar  291  PHE291     -0.0042
    156  CE1       18.0120   20.6790  -29.4960 C.ar  291  PHE291     -0.0003
    157  CE2       17.2100   22.3230  -27.9420 C.ar  291  PHE291     -0.0003
    158  CZ        18.2580   21.7480  -28.6320 C.ar  291  PHE291     -0.0000
    159  N         12.6660   19.0110  -32.8480 N.3   319  SER319     -0.1202
    160  CA        13.9020   18.6760  -33.5400 C.3   319  SER319      0.2020
    161  C         14.8300   17.8330  -32.6580 C.2   319  SER319      0.2619
    162  O         14.5980   17.7050  -31.4610 O.2   319  SER319     -0.2717
    163  CB        14.5940   19.9450  -34.0500 C.3   319  SER319      0.2103
    164  OG        15.1770   20.7220  -33.0250 O.3   319  SER319     -0.2182
    165  N         15.8610   17.2410  -33.2590 N.am  320  TYR320     -0.1961
    166  CA        16.8170   16.3770  -32.5590 C.3   320  TYR320      0.1771
    167  C         18.1030   16.4810  -33.3370 C.2   320  TYR320      0.2620
    168  O         18.0760   16.2970  -34.5580 O.2   320  TYR320     -0.2715
    169  CB        16.3280   14.9320  -32.5700 C.3   320  TYR320      0.0574
    170  CG        14.8400   14.8620  -32.3690 C.ar  320  TYR320     -0.0198
    171  CD1       14.2880   14.8730  -31.0820 C.ar  320  TYR320     -0.0009
    172  CD2       13.9680   14.8500  -33.4590 C.ar  320  TYR320     -0.0009
    173  CE1       12.9020   14.8600  -30.8830 C.ar  320  TYR320      0.0417
    174  CE2       12.5890   14.8310  -33.2670 C.ar  320  TYR320      0.0417
    175  CZ        12.0680   14.8440  -31.9740 C.ar  320  TYR320      0.1957
    176  OH        10.7140   14.8240  -31.7820 O.3   320  TYR320     -0.2866
    177  N         19.2220   16.7700  -32.6670 N.am  321  GLY321     -0.1940
    178  CA        20.4760   17.0360  -33.3650 C.3   321  GLY321      0.2014
    179  C         21.6750   16.3750  -32.7260 C.2   321  GLY321      0.2639
    180  O         21.7380   16.2910  -31.4940 O.2   321  GLY321     -0.2714
    181  N         22.6170   15.9090  -33.5640 N.am  322  VAL322     -0.1963
    182  CA        23.8660   15.2710  -33.1280 C.3   322  VAL322      0.1727
    183  C         25.0770   15.9200  -33.7890 C.2   322  VAL322      0.2616
    184  O         25.1370   16.0260  -35.0070 O.2   322  VAL322     -0.2715
    185  CB        23.9080   13.7850  -33.5000 C.3   322  VAL322      0.0290
    186  CG1       25.1410   13.1520  -32.9480 C.3   322  VAL322      0.0023
    187  CG2       22.7340   13.0810  -32.9800 C.3   322  VAL322      0.0023
    188  N         26.0650   16.3180  -33.0040 N.am  323  GLY323     -0.1955
    189  CA        27.2840   16.8500  -33.5820 C.3   323  GLY323      0.1869
    190  C         28.2460   15.7930  -34.1110 C.2   323  GLY323      0.2309
    191  O         29.1800   15.3880  -33.4160 O.2   323  GLY323     -0.2863
    192  N         30.6360   15.9360  -36.5280 N.3   325  SER325     -0.1202
    193  CA        32.0350   16.3710  -36.5310 C.3   325  SER325      0.2020
    194  C         32.5840   16.4990  -35.1040 C.2   325  SER325      0.2618
    195  O         33.7200   16.0940  -34.8530 O.2   325  SER325     -0.2717
    196  CB        32.1940   17.6910  -37.2710 C.3   325  SER325      0.2103
    197  OG        31.3830   18.6760  -36.6490 O.3   325  SER325     -0.2182
    198  N         31.7820   17.0330  -34.1710 N.am  326  ARG326     -0.1979
    199  CA        32.1980   17.0930  -32.7700 C.3   326  ARG326      0.1597
    200  C         32.4890   15.7200  -32.1670 C.2   326  ARG326      0.2287
    201  O         33.3920   15.5730  -31.3360 O.2   326  ARG326     -0.2864
    202  CB        31.1770   17.8310  -31.9150 C.3   326  ARG326      0.0334
    203  CG        31.4540   17.7500  -30.4350 C.3   326  ARG326      0.0492
    204  CD        31.3450   19.1070  -29.7720 C.3   326  ARG326      0.2205
    205  NE        30.1230   19.2880  -28.9910 N.pl3 326  ARG326     -0.0865
    206  CZ        29.5420   20.4700  -28.7810 C.cat 326  ARG326      0.5346
    207  NH1       30.0440   21.5910  -29.3150 N.pl3 326  ARG326      0.1354
    208  NH2       28.4310   20.5440  -28.0530 N.pl3 326  ARG326      0.1354
@<TRIPOS>BOND
     1     4     3    2
     2    11    10    2
     3    81    80    2
     4    70    69    2
     5    93    91   ar
     6    92    91   ar
     7    89    88    2
     8     3     2    1
     9   108   106   ar
    10   108   109   ar
    11    10     9    1
    12    67    68    1
    13   106   104   ar
    14    69    68    1
    15    91    90    1
    16     1     2    1
    17    78    79    1
    18     8     9    1
    19    68    71    1
    20    80    79    1
    21   110   109    1
    22   109   107   ar
    23     2     5    1
    24   102   101    2
    25     9    12    1
    26   104   103    1
    27   104   105   ar
    28    88    87    1
    29    88    94   am
    30    86    87    1
    31   103   100    1
    32    17    18    1
    33    79    82    1
    34    90    87    1
    35    95    94    1
    36    95    96    1
    37    95    98    1
    38    99   100    1
    39    99    96   am
    40   107   105   ar
    41    82    83    1
    42   196   197    1
    43   196   193    1
    44   101   100    1
    45    71    72    1
    46    96    97    2
    47     5     7    1
    48     5     6    1
    49    12    13    1
    50    18    19    1
    51    18    21    1
    52    74    72   ar
    53    74    76   ar
    54    72    73   ar
    55   193   192    1
    56   193   194    1
    57    19    20    2
    58    76    77   ar
    59    73    75   ar
    60    15    14   ar
    61    83    84    1
    62    42    41    1
    63    84    85    1
    64    77    75   ar
    65    13    14    1
    66    22    21    1
    67    22    23    1
    68    65    64    1
    69    65    66    2
    70    14    16   ar
    71   194   195    2
    72   194   198   am
    73    64    63    1
    74   184   183    2
    75    41    38    1
    76    41    43    1
    77    28    29    1
    78   168   167    2
    79    24    23    1
    80    24    25    2
    81    38    37    1
    82    38    39    1
    83   198   199    1
    84   190   189    1
    85   190   191    2
    86   163   160    1
    87   163   164    1
    88    27    25    1
    89    63    54   am
    90    40    39    2
    91   183   182    1
    92   183   188   am
    93    31    30    2
    94    25    26    1
    95   189   188    1
    96   181   182    1
    97   181   179   am
    98   160   159    1
    99   160   161    1
   100   185   182    1
   101   185   187    1
   102   185   186    1
   103   172   174   ar
   104   172   170   ar
   105    39    44   am
   106   178   179    1
   107   178   177    1
   108   167   177   am
   109   167   166    1
   110   174   175   ar
   111   165   161   am
   112   165   166    1
   113    29    30    1
   114    29    32    1
   115   199   200    1
   116   199   202    1
   117    32    33    1
   118   179   180    2
   119   161   162    2
   120    54    55    2
   121    54    53    1
   122   118   116    1
   123   169   166    1
   124   169   170    1
   125   170   171   ar
   126    35    34   ar
   127   200   201    2
   128    44    45    1
   129   175   176    1
   130   175   173   ar
   131   202   203    1
   132    34    33    1
   133    34    36   ar
   134    53    52    1
   135    53    56    1
   136    52    46   am
   137   117   115    1
   138   116   115    1
   139   171   173   ar
   140    45    46    1
   141    45    48    1
   142    46    47    2
   143   114   113    2
   144   112   115    1
   145   112   113    1
   146   112   111    1
   147   203   204    1
   148    56    57    1
   149    57    58    1
   150   131   130    2
   151   142   141    2
   152   204   205    1
   153   154   156   ar
   154   154   153   ar
   155    48    49    1
   156    49    50    1
   157   156   158   ar
   158   151   150    2
   159   207   206    1
   160   152   153    1
   161   152   149    1
   162   136   135    1
   163   136   137    1
   164   205   206    2
   165   130   135   am
   166   130   129    1
   167   153   155   ar
   168    58    59    1
   169   206   208    1
   170    59    60    2
   171   139   137   am
   172   139   140    1
   173   158   157   ar
   174   150   149    1
   175    50    51    1
   176   141   140    1
   177   148   149    1
   178   129   132    1
   179   129   128    1
   180   155   157   ar
   181   137   138    2
   182   132   133    1
   183   132   134    1
   184   140   143    1
   185   143   144    1
   186    62    60    1
   187    60    61    1
   188   127   125   ar
   189   122   121    2
   190   128   121   am
   191   147   145   am
   192   125   124    1
   193   125   126   ar
   194   121   120    1
   195   144   145    1
   196   124   123    1
   197   145   146    2
   198   123   120    1
   199   120   119    1
