@<TRIPOS>MOLECULE
tmp/2i4oA00.pdb
 126 117 0 0 0
SMALL
GASTEIGER

@<TRIPOS>ATOM
      1  N         -6.2560  -29.2360  -34.9840 N.3    95  GLU95      -0.1245
      2  CA        -6.9670  -29.9130  -33.8880 C.3    95  GLU95       0.1567
      3  C         -7.9860  -29.0390  -33.1640 C.2    95  GLU95       0.2260
      4  O         -8.9600  -29.5470  -32.6380 O.2    95  GLU95      -0.2867
      5  CB        -6.0090  -30.5110  -32.8790 C.3    95  GLU95       0.0388
      6  CG        -5.4330  -31.8290  -33.3440 C.3    95  GLU95       0.1160
      7  CD        -4.3870  -32.3530  -32.4120 C.2    95  GLU95       0.3649
      8  OE1       -4.5100  -32.0960  -31.1900 O.co2  95  GLU95      -0.2457
      9  OE2       -3.4280  -33.0100  -32.9010 O.co2  95  GLU95      -0.2457
     10  N        -10.1940  -32.5290  -29.5550 N.3   143  ARG143     -0.1245
     11  CA        -9.0410  -32.3440  -30.4080 C.3   143  ARG143      0.1563
     12  C         -9.3800  -33.0960  -31.6590 C.2   143  ARG143      0.2260
     13  O         -9.7120  -34.2800  -31.6060 O.2   143  ARG143     -0.2867
     14  CB        -7.8040  -32.9170  -29.7670 C.3   143  ARG143      0.0307
     15  CG        -7.2990  -32.0340  -28.6780 C.3   143  ARG143      0.0489
     16  CD        -5.9790  -32.5120  -28.1380 C.3   143  ARG143      0.2205
     17  NE        -5.7470  -31.8670  -26.8510 N.pl3 143  ARG143     -0.0865
     18  CZ        -4.6760  -32.0460  -26.0920 C.cat 143  ARG143      0.5346
     19  NH1       -3.7060  -32.8610  -26.4710 N.pl3 143  ARG143      0.1354
     20  NH2       -4.6100  -31.4260  -24.9350 N.pl3 143  ARG143      0.1354
     21  N         -8.3210  -34.7770  -33.9530 N.3   145  GLU145     -0.1245
     22  CA        -7.2180  -35.6680  -34.2940 C.3   145  GLU145      0.1567
     23  C         -7.2340  -35.9860  -35.7810 C.2   145  GLU145      0.2260
     24  O         -8.3120  -36.1880  -36.3590 O.2   145  GLU145     -0.2867
     25  CB        -7.2870  -36.9500  -33.4410 C.3   145  GLU145      0.0388
     26  CG        -7.0590  -36.7150  -31.9350 C.3   145  GLU145      0.1160
     27  CD        -5.5760  -36.5590  -31.5830 C.2   145  GLU145      0.3649
     28  OE1       -5.2170  -35.8530  -30.5980 O.co2 145  GLU145     -0.2457
     29  OE2       -4.7540  -37.1570  -32.3020 O.co2 145  GLU145     -0.2457
     30  N        -11.1420  -45.5650  -27.6660 N.3   152  VAL152     -0.1231
     31  CA       -10.9780  -44.5070  -26.6530 C.3   152  VAL152      0.1692
     32  C         -9.5150  -44.0390  -26.4740 C.2   152  VAL152      0.2592
     33  O         -9.2610  -43.0740  -25.7670 O.2   152  VAL152     -0.2718
     34  CB       -11.5450  -44.9310  -25.2640 C.3   152  VAL152      0.0266
     35  CG1      -12.9530  -45.4110  -25.3770 C.3   152  VAL152      0.0020
     36  CG2      -10.6390  -45.9820  -24.5800 C.3   152  VAL152      0.0020
     37  N         -8.5700  -44.7110  -27.1300 N.am  153  MET153     -0.1965
     38  CA        -7.1470  -44.4780  -26.8860 C.3   153  MET153      0.1736
     39  C         -6.6820  -43.2430  -27.6150 C.2   153  MET153      0.2616
     40  O         -5.8030  -42.5120  -27.1240 O.2   153  MET153     -0.2715
     41  CB        -6.3440  -45.6670  -27.3660 C.3   153  MET153      0.0427
     42  CG        -4.9690  -45.8150  -26.7760 C.3   153  MET153      0.0599
     43  SD        -4.9400  -47.0210  -25.4410 S.3   153  MET153     -0.1393
     44  CE        -5.7790  -48.4010  -26.1930 C.3   153  MET153      0.0692
     45  N         -7.2530  -43.0300  -28.8030 N.am  154  ARG154     -0.1963
     46  CA        -7.1210  -41.7770  -29.5220 C.3   154  ARG154      0.1729
     47  C         -8.4900  -41.3230  -30.0060 C.2   154  ARG154      0.2616
     48  O         -8.8790  -41.5980  -31.1480 O.2   154  ARG154     -0.2715
     49  CB        -6.1680  -41.8980  -30.6980 C.3   154  ARG154      0.0348
     50  CG        -6.0620  -40.6010  -31.4880 C.3   154  ARG154      0.0492
     51  CD        -4.7840  -40.5410  -32.2870 C.3   154  ARG154      0.2205
     52  NE        -3.6270  -40.9300  -31.4910 N.pl3 154  ARG154     -0.0865
     53  CZ        -2.8750  -40.0960  -30.7680 C.cat 154  ARG154      0.5346
     54  NH1       -3.1630  -38.8020  -30.7160 N.pl3 154  ARG154      0.1354
     55  NH2       -1.8260  -40.5670  -30.0880 N.pl3 154  ARG154      0.1354
     56  N         -9.2370  -40.6530  -29.1280 N.am  155  GLY155     -0.1955
     57  CA       -10.5470  -40.1440  -29.5080 C.3   155  GLY155      0.1869
     58  C        -10.4290  -38.7210  -29.9820 C.2   155  GLY155      0.2309
     59  O         -9.3300  -38.1600  -29.9840 O.2   155  GLY155     -0.2863
     60  N        -12.7510  -36.6380  -25.7000 N.3   158  PHE158     -0.1241
     61  CA       -12.0690  -37.4030  -24.6750 C.3   158  PHE158      0.1605
     62  C        -12.0400  -36.6860  -23.3100 C.2   158  PHE158      0.2264
     63  O        -12.1460  -35.4810  -23.2310 O.2   158  PHE158     -0.2867
     64  CB       -10.6650  -37.8710  -25.1680 C.3   158  PHE158      0.0534
     65  CG        -9.6370  -36.7560  -25.3240 C.ar  158  PHE158     -0.0203
     66  CD1       -8.7880  -36.4310  -24.2880 C.ar  158  PHE158     -0.0042
     67  CD2       -9.5160  -36.0530  -26.5290 C.ar  158  PHE158     -0.0042
     68  CE1       -7.8410  -35.4020  -24.4170 C.ar  158  PHE158     -0.0003
     69  CE2       -8.5600  -35.0530  -26.6780 C.ar  158  PHE158     -0.0003
     70  CZ        -7.7250  -34.7190  -25.6180 C.ar  158  PHE158     -0.0000
     71  N        -10.1340  -35.7100  -19.7920 N.3   160  MET160     -0.1245
     72  CA        -8.8460  -35.4380  -19.2500 C.3   160  MET160      0.1570
     73  C         -9.0420  -34.8410  -17.8600 C.2   160  MET160      0.2261
     74  O        -10.0000  -34.0790  -17.6300 O.2   160  MET160     -0.2867
     75  CB        -8.0890  -34.4590  -20.1590 C.3   160  MET160      0.0387
     76  CG        -6.6030  -34.7100  -20.2490 C.3   160  MET160      0.0595
     77  SD        -5.6400  -33.2000  -20.3570 S.3   160  MET160     -0.1393
     78  CE        -5.7050  -32.7870  -22.1040 C.3   160  MET160      0.0692
     79  N          1.1080  -43.3320  -23.5200 N.3   285  GLU285     -0.1231
     80  CA         1.2030  -42.1970  -22.6040 C.3   285  GLU285      0.1699
     81  C         -0.1430  -42.0140  -21.9510 C.2   285  GLU285      0.2592
     82  O         -1.1350  -41.7650  -22.6190 O.2   285  GLU285     -0.2718
     83  CB         1.6330  -40.9100  -23.3120 C.3   285  GLU285      0.0402
     84  CG         1.5660  -39.6590  -22.4440 C.3   285  GLU285      0.1161
     85  CD         1.5830  -38.4080  -23.2740 C.2   285  GLU285      0.3649
     86  OE1        2.3130  -38.4000  -24.2910 O.co2 285  GLU285     -0.2457
     87  OE2        0.8770  -37.4280  -22.9280 O.co2 285  GLU285     -0.2457
     88  N         -0.1610  -42.1310  -20.6360 N.am  286  VAL286     -0.1966
     89  CA        -1.3910  -42.0000  -19.8560 C.3   286  VAL286      0.1727
     90  C         -1.4120  -40.7000  -19.0500 C.2   286  VAL286      0.2617
     91  O         -2.4310  -40.3360  -18.4700 O.2   286  VAL286     -0.2715
     92  CB        -1.6190  -43.2200  -18.9160 C.3   286  VAL286      0.0290
     93  CG1       -2.1100  -44.4500  -19.7120 C.3   286  VAL286      0.0023
     94  CG2       -0.3660  -43.5170  -18.0900 C.3   286  VAL286      0.0023
     95  N         -0.2810  -40.0040  -19.0220 N.am  287  GLY287     -0.1940
     96  CA        -0.1880  -38.7440  -18.3000 C.3   287  GLY287      0.2014
     97  C          1.0280  -37.9440  -18.7170 C.2   287  GLY287      0.2638
     98  O          1.9920  -38.5060  -19.2440 O.2   287  GLY287     -0.2714
     99  N          0.9900  -36.6360  -18.4610 N.am  288  GLN288     -0.1977
    100  CA         2.1610  -35.8000  -18.6530 C.3   288  GLN288      0.1601
    101  C          2.2270  -34.6830  -17.6120 C.2   288  GLN288      0.2287
    102  O          1.2310  -34.0280  -17.3450 O.2   288  GLN288     -0.2864
    103  CB         2.2240  -35.2290  -20.0870 C.3   288  GLN288      0.0394
    104  CG         3.2410  -34.0770  -20.1960 C.3   288  GLN288      0.0908
    105  CD         3.9920  -34.0050  -21.5100 C.2   288  GLN288      0.2608
    106  OE1        3.4370  -34.2920  -22.5650 O.2   288  GLN288     -0.2717
    107  NE2        5.2670  -33.5900  -21.4470 N.am  288  GLN288     -0.0878
    108  N         -1.5380  -33.3710  -16.8980 N.3   320  GLY320     -0.1225
    109  CA        -2.6940  -34.0210  -17.5160 C.3   320  GLY320      0.1811
    110  C         -2.7740  -35.5310  -17.3630 C.2   320  GLY320      0.2280
    111  O         -1.7840  -36.2220  -17.5890 O.2   320  GLY320     -0.2866
    112  N         -4.9830  -38.7580  -18.8660 N.3   322  GLY322     -0.1225
    113  CA        -5.9620  -39.2410  -19.8200 C.3   322  GLY322      0.1811
    114  C         -6.9550  -40.1630  -19.1400 C.2   322  GLY322      0.2280
    115  O         -6.7690  -41.3510  -19.1370 O.2   322  GLY322     -0.2866
    116  N         -8.6650  -42.3490  -22.0120 N.3   325  ARG325     -0.1245
    117  CA        -7.5800  -43.1750  -22.5820 C.3   325  ARG325      0.1563
    118  C         -7.2430  -44.3240  -21.6560 C.2   325  ARG325      0.2260
    119  O         -6.8900  -45.4140  -22.1330 O.2   325  ARG325     -0.2867
    120  CB        -6.2990  -42.3670  -22.8600 C.3   325  ARG325      0.0307
    121  CG        -5.0680  -43.2370  -23.2320 C.3   325  ARG325      0.0489
    122  CD        -3.8750  -42.4220  -23.7540 C.3   325  ARG325      0.2205
    123  NE        -4.1510  -41.8240  -25.0580 N.pl3 325  ARG325     -0.0865
    124  CZ        -3.2610  -41.1560  -25.7970 C.cat 325  ARG325      0.5346
    125  NH1       -2.0210  -40.9600  -25.3610 N.pl3 325  ARG325      0.1354
    126  NH2       -3.6220  -40.6500  -26.9690 N.pl3 325  ARG325      0.1354
@<TRIPOS>BOND
     1    24    23    2
     2    23    22    1
     3     1     2    1
     4    22    21    1
     5    22    25    1
     6     2     3    1
     7     2     5    1
     8    25    26    1
     9     6     5    1
    10     6     7    1
    11     3     4    2
    12     9     7   ar
    13     7     8   ar
    14    29    27   ar
    15    51    52    1
    16    51    50    1
    17    26    27    1
    18    12    13    2
    19    12    11    1
    20    27    28   ar
    21    52    53    2
    22    50    49    1
    23    48    47    2
    24    53    54    1
    25    53    55    1
    26    49    46    1
    27    11    14    1
    28    11    10    1
    29    47    46    1
    30    47    56   am
    31    59    58    2
    32    58    57    1
    33    14    15    1
    34    46    45    1
    35    57    56    1
    36    45    39   am
    37    15    16    1
    38    16    17    1
    39    30    31    1
    40    39    40    2
    41    39    38    1
    42    41    38    1
    43    41    42    1
    44    37    38    1
    45    37    32   am
    46   126   124    1
    47    17    18    2
    48    42    43    1
    49    69    67   ar
    50    69    70   ar
    51    31    32    1
    52    31    34    1
    53    67    65   ar
    54    32    33    2
    55    19    18    1
    56    44    43    1
    57    18    20    1
    58   124   125    1
    59   124   123    2
    60    60    61    1
    61    70    68   ar
    62    35    34    1
    63    65    64    1
    64    65    66   ar
    65    34    36    1
    66    64    61    1
    67   123   122    1
    68    61    62    1
    69    68    66   ar
    70    86    85   ar
    71   122   121    1
    72    79    80    1
    73    83    80    1
    74    83    84    1
    75    62    63    2
    76    85    87   ar
    77    85    84    1
    78   121   120    1
    79   120   117    1
    80    82    81    2
    81    80    81    1
    82   117   116    1
    83   117   118    1
    84   106   105    2
    85   119   118    2
    86    78    77    1
    87    81    88   am
    88   105   107   am
    89   105   104    1
    90    88    89    1
    91    77    76    1
    92    76    75    1
    93   104   103    1
    94    75    72    1
    95   103   100    1
    96    89    90    1
    97    89    92    1
    98   113   114    1
    99   113   112    1
   100    71    72    1
   101    93    92    1
   102    72    73    1
   103    98    97    2
   104   114   115    2
   105    90    95   am
   106    90    91    2
   107    95    96    1
   108    92    94    1
   109    97    99   am
   110    97    96    1
   111   100    99    1
   112   100   101    1
   113    73    74    2
   114   101   102    2
   115   111   110    2
   116   109   110    1
   117   109   108    1
