@<TRIPOS>MOLECULE
tmp/2i4qB00.pdb
 188 181 0 0 0
SMALL
GASTEIGER

@<TRIPOS>ATOM
      1  N          2.8680   88.0630  150.7170 N.3    14  THR14      -0.1203
      2  CA         2.6170   87.5130  152.0610 C.3    14  THR14       0.1994
      3  C          3.4970   88.1090  153.1540 C.2    14  THR14       0.2618
      4  O          3.2720   87.8590  154.3370 O.2    14  THR14      -0.2717
      5  CB         2.7950   85.9820  152.0600 C.3    14  THR14       0.1784
      6  OG1        4.1010   85.6430  151.5780 O.3    14  THR14      -0.2211
      7  CG2        1.8380   85.3210  151.0800 C.3    14  THR14       0.0376
      8  N          4.5060   88.8720  152.7600 N.am   15  GLN15      -0.1965
      9  CA         5.3700   89.5660  153.7060 C.3    15  GLN15       0.1733
     10  C          5.5990   90.9760  153.1960 C.2    15  GLN15       0.2616
     11  O          5.8450   91.1760  152.0110 O.2    15  GLN15      -0.2715
     12  CB         6.7180   88.8550  153.8640 C.3    15  GLN15       0.0408
     13  CG         6.6380   87.3450  154.0970 C.3    15  GLN15       0.0908
     14  CD         7.9860   86.7350  154.4830 C.2    15  GLN15       0.2608
     15  OE1        8.8400   87.4220  155.0280 O.2    15  GLN15      -0.2717
     16  NE2        8.1730   85.4490  154.1950 N.am   15  GLN15      -0.0878
     17  N          5.5090   91.9400  154.1020 N.am   16  TYR16      -0.1974
     18  CA         5.7260   93.3410  153.7890 C.3    16  TYR16       0.1639
     19  C          6.5740   93.9270  154.8990 C.2    16  TYR16       0.2290
     20  O          6.2320   93.8160  156.0760 O.2    16  TYR16      -0.2864
     21  CB         4.3940   94.0990  153.6870 C.3    16  TYR16       0.0560
     22  CG         3.5500   93.7460  152.4760 C.ar   16  TYR16      -0.0198
     23  CD1        2.6710   92.6700  152.5070 C.ar   16  TYR16      -0.0009
     24  CD2        3.6180   94.5020  151.3050 C.ar   16  TYR16      -0.0009
     25  CE1        1.8850   92.3490  151.4160 C.ar   16  TYR16       0.0417
     26  CE2        2.8360   94.1850  150.1980 C.ar   16  TYR16       0.0417
     27  CZ         1.9680   93.1070  150.2620 C.ar   16  TYR16       0.1957
     28  OH         1.1820   92.7790  149.1800 O.3    16  TYR16      -0.2866
     29  N          8.5650   94.0740  159.8050 N.3    32  VAL32      -0.1245
     30  CA         7.1470   94.1680  159.4960 C.3    32  VAL32       0.1561
     31  C          6.5390   95.2180  160.4210 C.2    32  VAL32       0.2260
     32  O          6.7500   95.1670  161.6300 O.2    32  VAL32      -0.2867
     33  CB         6.4430   92.8180  159.7290 C.3    32  VAL32       0.0252
     34  CG1        4.9420   92.9540  159.5530 C.3    32  VAL32       0.0019
     35  CG2        7.0020   91.7500  158.7960 C.3    32  VAL32       0.0019
     36  N          3.3860   96.3100  162.2150 N.3    34  ASP34      -0.1239
     37  CA         2.3750   95.3240  162.6130 C.3    34  ASP34       0.1674
     38  C          1.3320   95.8670  163.5990 C.2    34  ASP34       0.2266
     39  O          1.6010   95.9620  164.7930 O.2    34  ASP34      -0.2867
     40  CB         3.1030   94.1340  163.2500 C.3    34  ASP34       0.1410
     41  CG         2.1640   93.0350  163.7050 C.2    34  ASP34       0.3668
     42  OD1        2.6000   92.1820  164.5080 O.co2  34  ASP34      -0.2456
     43  OD2        0.9840   92.9300  163.3170 O.co2  34  ASP34      -0.2456
     44  N         -1.3090   94.3530  164.5920 N.3    36  GLY36      -0.1225
     45  CA        -1.7670   93.2510  165.4260 C.3    36  GLY36       0.1811
     46  C         -0.8620   92.8820  166.6000 C.2    36  GLY36       0.2280
     47  O         -1.1330   91.9170  167.3120 O.2    36  GLY36      -0.2866
     48  N          2.8800   85.1180  168.3990 N.3    79  TYR79      -0.1227
     49  CA         2.0140   85.4470  167.2720 C.3    79  TYR79       0.1736
     50  C          1.2140   84.2180  166.8730 C.2    79  TYR79       0.2596
     51  O          1.5200   83.1040  167.2960 O.2    79  TYR79      -0.2718
     52  CB         2.8410   85.9430  166.0830 C.3    79  TYR79       0.0548
     53  CG         3.7680   87.0760  166.4410 C.ar   79  TYR79      -0.0200
     54  CD1        5.1240   86.8510  166.6590 C.ar   79  TYR79      -0.0009
     55  CD2        3.2820   88.3690  166.5910 C.ar   79  TYR79      -0.0009
     56  CE1        5.9730   87.8910  167.0010 C.ar   79  TYR79       0.0417
     57  CE2        4.1230   89.4150  166.9340 C.ar   79  TYR79       0.0417
     58  CZ         5.4650   89.1680  167.1360 C.ar   79  TYR79       0.1957
     59  OH         6.2950   90.1990  167.4790 O.3    79  TYR79      -0.2866
     60  N          0.1880   84.4390  166.0540 N.am   80  SER80      -0.1938
     61  CA        -0.6080   83.3630  165.4660 C.3    80  SER80       0.2055
     62  C          0.2260   82.1440  165.0810 C.2    80  SER80       0.2644
     63  O         -0.1330   81.0010  165.3820 O.2    80  SER80      -0.2714
     64  CB        -1.2920   83.8720  164.1970 C.3    80  SER80       0.2130
     65  OG        -2.2510   84.8640  164.4970 O.3    80  SER80      -0.2179
     66  N          1.3410   82.4050  164.4090 N.am   81  THR81      -0.1936
     67  CA         2.0750   81.3600  163.7210 C.3    81  THR81       0.2028
     68  C          3.3720   80.9840  164.4400 C.2    81  THR81       0.2642
     69  O          3.5910   79.8040  164.7400 O.2    81  THR81      -0.2714
     70  CB         2.3160   81.7770  162.2570 C.3    81  THR81       0.1808
     71  OG1        2.7250   83.1500  162.1770 O.3    81  THR81      -0.2208
     72  CG2        1.0010   81.7650  161.4740 C.3    81  THR81       0.0379
     73  N          4.2110   81.9740  164.7390 N.am   82  GLY82      -0.1954
     74  CA         5.4920   81.7250  165.3940 C.3    82  GLY82       0.1869
     75  C          5.6270   82.3620  166.7670 C.2    82  GLY82       0.2309
     76  O          4.7970   83.1810  167.1600 O.2    82  GLY82      -0.2863
     77  N         10.7270   77.1910  162.0460 N.3   113  LEU113     -0.1231
     78  CA         9.3410   77.3480  161.6320 C.3   113  LEU113      0.1678
     79  C          8.7380   78.4160  162.5470 C.2   113  LEU113      0.2434
     80  O          8.5690   78.1540  163.7400 O.2   113  LEU113     -0.2733
     81  CB         8.5900   76.0110  161.7670 C.3   113  LEU113      0.0284
     82  CG         7.4420   75.6510  160.8100 C.3   113  LEU113      0.0019
     83  CD1        6.3540   74.8840  161.5710 C.3   113  LEU113      0.0001
     84  CD2        6.8330   76.8560  160.0940 C.3   113  LEU113      0.0001
     85  N          8.4080   79.6060  162.0310 N.am  114  PRO114     -0.2718
     86  CA         8.5170   79.9850  160.6150 C.3   114  PRO114      0.1535
     87  C          9.6500   80.9630  160.2450 C.2   114  PRO114      0.2598
     88  O          9.7060   81.3580  159.0810 O.2   114  PRO114     -0.2715
     89  CB         7.1950   80.7140  160.4030 C.3   114  PRO114      0.0310
     90  CG         7.0000   81.4620  161.7400 C.3   114  PRO114      0.0237
     91  CD         7.7880   80.6950  162.8050 C.3   114  PRO114      0.0939
     92  N         10.5140   81.3550  161.1810 N.am  115  PHE115     -0.1974
     93  CA        11.4160   82.5010  160.9480 C.3   115  PHE115      0.1639
     94  C         12.5660   82.2910  159.9580 C.2   115  PHE115      0.2290
     95  O         13.2320   83.2530  159.5850 O.2   115  PHE115     -0.2864
     96  CB        11.9210   83.0630  162.2790 C.3   115  PHE115      0.0560
     97  CG        10.8220   83.6280  163.1210 C.ar  115  PHE115     -0.0200
     98  CD1       10.3600   82.9460  164.2380 C.ar  115  PHE115     -0.0042
     99  CD2       10.2030   84.8170  162.7580 C.ar  115  PHE115     -0.0042
    100  CE1        9.3260   83.4560  164.9950 C.ar  115  PHE115     -0.0003
    101  CE2        9.1660   85.3340  163.5090 C.ar  115  PHE115     -0.0003
    102  CZ         8.7260   84.6580  164.6300 C.ar  115  PHE115     -0.0000
    103  N         11.7470   81.2540  157.0160 N.3   117  LEU117     -0.1231
    104  CA        11.0040   81.7780  155.8700 C.3   117  LEU117      0.1693
    105  C         10.9120   83.3000  155.8680 C.2   117  LEU117      0.2591
    106  O         10.7100   83.9080  154.8150 O.2   117  LEU117     -0.2718
    107  CB         9.5920   81.1960  155.8500 C.3   117  LEU117      0.0284
    108  CG         9.4860   79.6850  156.0890 C.3   117  LEU117      0.0019
    109  CD1        8.0890   79.2140  155.7830 C.3   117  LEU117      0.0001
    110  CD2       10.5330   78.9240  155.2540 C.3   117  LEU117      0.0001
    111  N         11.0590   83.9130  157.0410 N.am  118  ALA118     -0.1980
    112  CA        10.9780   85.3650  157.1680 C.3   118  ALA118      0.1597
    113  C         12.0870   86.0450  156.3710 C.2   118  ALA118      0.2287
    114  O         13.2710   85.7990  156.6010 O.2   118  ALA118     -0.2864
    115  CB        11.0550   85.7820  158.6390 C.3   118  ALA118      0.0319
    116  N         12.0480   89.2660  156.4560 N.3   120  PHE120     -0.1241
    117  CA        12.2620   90.3200  157.4330 C.3   120  PHE120      0.1605
    118  C         13.0360   89.7690  158.6340 C.2   120  PHE120      0.2264
    119  O         12.9560   88.5730  158.9260 O.2   120  PHE120     -0.2867
    120  CB        10.9180   90.8890  157.8990 C.3   120  PHE120      0.0534
    121  CG         9.9960   89.8650  158.5110 C.ar  120  PHE120     -0.0203
    122  CD1        9.1020   89.1540  157.7220 C.ar  120  PHE120     -0.0042
    123  CD2       10.0130   89.6190  159.8790 C.ar  120  PHE120     -0.0042
    124  CE1        8.2470   88.2110  158.2810 C.ar  120  PHE120     -0.0003
    125  CE2        9.1630   88.6800  160.4420 C.ar  120  PHE120     -0.0003
    126  CZ         8.2750   87.9760  159.6410 C.ar  120  PHE120     -0.0000
    127  N         10.1150   92.8710  163.9000 N.3   123  VAL123     -0.1245
    128  CA         8.7550   93.3880  163.8920 C.3   123  VAL123      0.1561
    129  C          8.6850   94.6960  164.6710 C.2   123  VAL123      0.2260
    130  O          9.2530   94.8150  165.7550 O.2   123  VAL123     -0.2867
    131  CB         7.7750   92.3720  164.5250 C.3   123  VAL123      0.0252
    132  CG1        6.3390   92.8530  164.3980 C.3   123  VAL123      0.0019
    133  CG2        7.9340   91.0110  163.8830 C.3   123  VAL123      0.0019
    134  N         -0.1910   98.5880  150.8080 N.3   158  TYR158     -0.1241
    135  CA         0.4400   97.3460  150.3540 C.3   158  TYR158      0.1605
    136  C          0.1080   97.1540  148.8760 C.2   158  TYR158      0.2264
    137  O         -1.0550   97.0300  148.5130 O.2   158  TYR158     -0.2867
    138  CB        -0.0850   96.1420  151.1550 C.3   158  TYR158      0.0534
    139  CG         0.4710   95.9720  152.5670 C.ar  158  TYR158     -0.0201
    140  CD1       -0.0630   95.0140  153.4190 C.ar  158  TYR158     -0.0009
    141  CD2        1.5310   96.7430  153.0400 C.ar  158  TYR158     -0.0009
    142  CE1        0.4370   94.8290  154.7030 C.ar  158  TYR158      0.0417
    143  CE2        2.0310   96.5660  154.3180 C.ar  158  TYR158      0.0417
    144  CZ         1.4860   95.6090  155.1470 C.ar  158  TYR158      0.1957
    145  OH         1.9820   95.4400  156.4230 O.3   158  TYR158     -0.2866
    146  N         -5.2690   93.9790  160.6920 N.3   222  ASP222     -0.1225
    147  CA        -3.9570   93.4780  161.0680 C.3   222  ASP222      0.1805
    148  C         -2.9520   93.5470  159.9230 C.2   222  ASP222      0.2598
    149  O         -2.9300   92.6740  159.0620 O.2   222  ASP222     -0.2718
    150  CB        -4.1110   92.0290  161.5300 C.3   222  ASP222      0.1424
    151  CG        -2.8780   91.5060  162.2190 C.2   222  ASP222      0.3668
    152  OD1       -2.9330   90.3580  162.7140 O.co2 222  ASP222     -0.2456
    153  OD2       -1.8140   92.1620  162.3100 O.co2 222  ASP222     -0.2456
    154  N         -2.0990   94.5670  159.9420 N.am  223  THR223     -0.1939
    155  CA        -1.0920   94.7690  158.8960 C.3   223  THR223      0.2028
    156  C          0.0570   93.7570  158.9590 C.2   223  THR223      0.2643
    157  O          0.8340   93.6310  158.0040 O.2   223  THR223     -0.2714
    158  CB        -0.4960   96.1940  158.9650 C.3   223  THR223      0.1808
    159  OG1        0.2210   96.3690  160.1970 O.3   223  THR223     -0.2208
    160  CG2       -1.5850   97.2580  158.9940 C.3   223  THR223      0.0379
    161  N          0.1850   93.0690  160.0880 N.am  224  GLY224     -0.1939
    162  CA         1.1770   92.0180  160.2470 C.3   224  GLY224      0.2014
    163  C          0.6870   90.6200  159.9270 C.2   224  GLY224      0.2639
    164  O          1.4250   89.6570  160.1300 O.2   224  GLY224     -0.2714
    165  N         -0.5500   90.4940  159.4490 N.am  225  ALA225     -0.1963
    166  CA        -1.0590   89.2110  158.9580 C.3   225  ALA225      0.1728
    167  C         -1.0700   89.2110  157.4330 C.2   225  ALA225      0.2616
    168  O         -1.3570   90.2330  156.8050 O.2   225  ALA225     -0.2715
    169  CB        -2.4500   88.9460  159.4970 C.3   225  ALA225      0.0334
    170  N         -0.7640   88.0590  156.8430 N.am  226  SER226     -0.1950
    171  CA        -0.6920   87.9200  155.3940 C.3   226  SER226      0.1924
    172  C         -2.0570   87.8880  154.7130 C.2   226  SER226      0.2314
    173  O         -2.2140   88.4060  153.6200 O.2   226  SER226     -0.2863
    174  CB         0.0690   86.6470  155.0320 C.3   226  SER226      0.2116
    175  OG         1.4060   86.7150  155.4810 O.3   226  SER226     -0.2180
    176  N         -8.2470   80.8170  160.8490 N.3   299  MET299     -0.1245
    177  CA        -7.3740   81.1690  161.9580 C.3   299  MET299      0.1570
    178  C         -8.2260   81.4240  163.2030 C.2   299  MET299      0.2261
    179  O         -8.8670   82.4670  163.3280 O.2   299  MET299     -0.2867
    180  CB        -6.5280   82.3970  161.6100 C.3   299  MET299      0.0387
    181  CG        -5.7070   82.9420  162.7740 C.3   299  MET299      0.0595
    182  SD        -4.2050   83.8160  162.2870 S.3   299  MET299     -0.1393
    183  CE        -4.8600   85.1620  161.2800 C.3   299  MET299      0.0692
    184  N         -3.1850   91.3470  154.8280 N.3   313  ALA313     -0.1245
    185  CA        -2.5970   91.9600  153.6390 C.3   313  ALA313      0.1562
    186  C         -3.5170   91.8820  152.4180 C.2   313  ALA313      0.2260
    187  O         -3.5520   92.8040  151.6120 O.2   313  ALA313     -0.2867
    188  CB        -1.2460   91.3390  153.3290 C.3   313  ALA313      0.0290
@<TRIPOS>BOND
     1   137   136    2
     2   136   135    1
     3    28    27    1
     4    26    27   ar
     5    26    24   ar
     6    27    25   ar
     7   135   134    1
     8   135   138    1
     9     1     2    1
    10     7     5    1
    11   138   139    1
    12    24    22   ar
    13    25    23   ar
    14     6     5    1
    15   187   186    2
    16    11    10    2
    17     5     2    1
    18     2     3    1
    19   186   185    1
    20    22    23   ar
    21    22    21    1
    22   139   141   ar
    23   139   140   ar
    24     8     3   am
    25     8     9    1
    26   141   143   ar
    27     3     4    2
    28    10     9    1
    29    10    17   am
    30   188   185    1
    31   140   142   ar
    32   173   172    2
    33   185   184    1
    34    21    18    1
    35     9    12    1
    36    18    17    1
    37    18    19    1
    38    12    13    1
    39    13    14    1
    40    16    14   am
    41   143   144   ar
    42    14    15    2
    43   142   144   ar
    44   172   171    1
    45   106   105    2
    46    19    20    2
    47   174   171    1
    48   174   175    1
    49   144   145    1
    50   110   108    1
    51   171   170    1
    52   109   108    1
    53   107   104    1
    54   107   108    1
    55   105   104    1
    56   105   111   am
    57   104   103    1
    58   113   114    2
    59   113   112    1
    60   116   117    1
    61   168   167    2
    62   170   167   am
    63   111   112    1
    64   112   115    1
    65   117   120    1
    66   117   118    1
    67   167   166    1
    68   122   124   ar
    69   122   121   ar
    70   120   121    1
    71   157   156    2
    72   124   126   ar
    73   121   123   ar
    74   118   119    2
    75    35    33    1
    76   155   156    1
    77   155   158    1
    78   155   154    1
    79   166   165    1
    80   166   169    1
    81   156   161   am
    82   158   160    1
    83   158   159    1
    84   149   148    2
    85    88    87    2
    86   165   163   am
    87    30    33    1
    88    30    29    1
    89    30    31    1
    90    34    33    1
    91    95    94    2
    92   126   125   ar
    93   123   125   ar
    94   148   154   am
    95   148   147    1
    96   163   164    2
    97   163   162    1
    98    94    93    1
    99   161   162    1
   100    84    82    1
   101    87    86    1
   102    87    92   am
   103    89    86    1
   104    89    90    1
   105    31    32    2
   106    86    85    1
   107   146   147    1
   108    82    83    1
   109    82    81    1
   110   176   177    1
   111    93    92    1
   112    93    96    1
   113   147   150    1
   114   183   182    1
   115    72    70    1
   116   150   151    1
   117   180   177    1
   118   180   181    1
   119    78    81    1
   120    78    77    1
   121    78    79    1
   122    90    91    1
   123   177   178    1
   124    85    79   am
   125    85    91    1
   126    71    70    1
   127    36    37    1
   128   151   153   ar
   129   151   152   ar
   130    70    67    1
   131    96    97    1
   132   182   181    1
   133    79    80    2
   134    37    40    1
   135    37    38    1
   136    99    97   ar
   137    99   101   ar
   138    97    98   ar
   139   178   179    2
   140    40    41    1
   141    43    41   ar
   142   101   102   ar
   143    38    39    2
   144    41    42   ar
   145    67    66    1
   146    67    68    1
   147   133   131    1
   148   128   127    1
   149   128   131    1
   150   128   129    1
   151    64    65    1
   152    64    61    1
   153    98   100   ar
   154   132   131    1
   155    66    62   am
   156    68    73   am
   157    68    69    2
   158    44    45    1
   159   102   100   ar
   160   129   130    2
   161    73    74    1
   162    62    63    2
   163    62    61    1
   164    74    75    1
   165    45    46    1
   166    61    60    1
   167    60    50   am
   168    52    53    1
   169    52    49    1
   170    53    55   ar
   171    53    54   ar
   172    55    57   ar
   173    46    47    2
   174    54    56   ar
   175    75    76    2
   176    50    49    1
   177    50    51    2
   178    57    58   ar
   179    56    58   ar
   180    58    59    1
   181    49    48    1
