@<TRIPOS>MOLECULE
tmp/2i4tC00.pdb
 113 105 0 0 0
SMALL
GASTEIGER

@<TRIPOS>ATOM
      1  N        -79.5480    8.5240  -29.5720 N.3    20  GLY20      -0.1225
      2  CA       -79.7660    7.1340  -29.1780 C.3    20  GLY20       0.1811
      3  C        -79.8460    6.2770  -30.4170 C.2    20  GLY20       0.2280
      4  O        -79.0930    5.3010  -30.6070 O.2    20  GLY20      -0.2866
      5  N        -79.3860    2.9710  -26.6110 N.3    64  MET64      -0.1245
      6  CA       -80.2570    3.2820  -25.4990 C.3    64  MET64       0.1570
      7  C        -79.6000    2.7950  -24.1560 C.2    64  MET64       0.2261
      8  O        -78.9400    1.7500  -24.1430 O.2    64  MET64      -0.2867
      9  CB       -81.5880    2.6000  -25.7340 C.3    64  MET64       0.0387
     10  CG       -82.3870    3.2070  -26.8220 C.3    64  MET64       0.0595
     11  SD       -84.0110    2.3950  -26.9010 S.3    64  MET64      -0.1393
     12  CE       -83.3480    0.7230  -27.2370 C.3    64  MET64       0.0692
     13  N        -75.5910   15.5610  -26.1550 N.3    87  ARG87      -0.1245
     14  CA       -76.5130   14.5060  -26.4460 C.3    87  ARG87       0.1563
     15  C        -77.7090   15.2600  -26.9120 C.2    87  ARG87       0.2260
     16  O        -78.2720   16.0750  -26.1720 O.2    87  ARG87      -0.2867
     17  CB       -76.8320   13.6680  -25.1850 C.3    87  ARG87       0.0307
     18  CG       -78.0300   12.6960  -25.3350 C.3    87  ARG87       0.0489
     19  CD       -78.4230   11.9100  -24.0520 C.3    87  ARG87       0.2205
     20  NE       -79.8740   11.7680  -24.0390 N.pl3  87  ARG87      -0.0865
     21  CZ       -80.5400   11.0820  -24.9510 C.cat  87  ARG87       0.5346
     22  NH1      -79.8370   10.4640  -25.8990 N.pl3  87  ARG87       0.1354
     23  NH2      -81.8910   10.9910  -24.9090 N.pl3  87  ARG87       0.1354
     24  N        -84.3640   12.6190  -27.3130 N.3    90  THR90      -0.1203
     25  CA       -85.7950   12.7110  -27.0220 C.3    90  THR90       0.1994
     26  C        -85.9300   12.2060  -25.6050 C.2    90  THR90       0.2618
     27  O        -84.9990   11.5650  -25.0960 O.2    90  THR90      -0.2717
     28  CB       -86.6450   11.8390  -28.0130 C.3    90  THR90       0.1784
     29  OG1      -86.8770   10.5160  -27.4700 O.3    90  THR90      -0.2211
     30  CG2      -85.9160   11.7410  -29.4150 C.3    90  THR90       0.0376
     31  N        -87.0820   12.4660  -24.9950 N.am   91  CYS91      -0.1955
     32  CA       -87.2140   12.2920  -23.5690 C.3    91  CYS91       0.1843
     33  C        -88.7270   12.3710  -23.3080 C.2    91  CYS91       0.2626
     34  O        -89.4440   12.7150  -24.2390 O.2    91  CYS91      -0.2714
     35  CB       -86.4780   13.4430  -22.8740 C.3    91  CYS91       0.0997
     36  SG       -87.4480   14.9920  -23.0280 S.3    91  CYS91      -0.0797
     37  N        -89.2020   12.0840  -22.0840 N.am   92  GLY92      -0.1954
     38  CA       -90.6200   12.0710  -21.7950 C.3    92  GLY92       0.1869
     39  C        -91.0190   13.0130  -20.6710 C.2    92  GLY92       0.2309
     40  O        -90.4330   12.9800  -19.5960 O.2    92  GLY92      -0.2863
     41  N        -83.4350    6.9630  -16.4340 N.3   155  THR155     -0.1218
     42  CA       -84.0090    5.6830  -15.9530 C.3   155  THR155      0.1862
     43  C        -83.2960    4.4700  -16.5340 C.2   155  THR155      0.2287
     44  O        -82.8320    4.4940  -17.6800 O.2   155  THR155     -0.2866
     45  CB       -85.4850    5.5780  -16.2680 C.3   155  THR155      0.1770
     46  OG1      -86.0350    4.5070  -15.5200 O.3   155  THR155     -0.2211
     47  CG2      -85.6750    5.3090  -17.7650 C.3   155  THR155      0.0375
     48  N        -87.2100    1.6230  -18.7960 N.3   158  PHE158     -0.1241
     49  CA       -88.1790    2.2910  -19.6140 C.3   158  PHE158      0.1605
     50  C        -89.6140    1.9550  -19.1570 C.2   158  PHE158      0.2264
     51  O        -90.4630    2.8370  -19.1280 O.2   158  PHE158     -0.2867
     52  CB       -87.9290    1.9770  -21.1380 C.3   158  PHE158      0.0534
     53  CG       -88.9130    2.6630  -22.0480 C.ar  158  PHE158     -0.0203
     54  CD1      -88.5670    3.8490  -22.7020 C.ar  158  PHE158     -0.0042
     55  CD2      -90.2340    2.1790  -22.1620 C.ar  158  PHE158     -0.0042
     56  CE1      -89.5150    4.5400  -23.4970 C.ar  158  PHE158     -0.0003
     57  CE2      -91.1940    2.8550  -22.9680 C.ar  158  PHE158     -0.0003
     58  CZ       -90.8370    4.0430  -23.6330 C.ar  158  PHE158     -0.0000
     59  N        -87.7810   12.6230  -18.5980 N.3   177  VAL177     -0.1231
     60  CA       -87.0400   11.3970  -18.4420 C.3   177  VAL177      0.1692
     61  C        -86.3920   10.9140  -19.7330 C.2   177  VAL177      0.2592
     62  O        -87.0140   10.9200  -20.7710 O.2   177  VAL177     -0.2718
     63  CB       -87.9690   10.2470  -17.9560 C.3   177  VAL177      0.0266
     64  CG1      -87.1820    8.9160  -17.9590 C.3   177  VAL177      0.0020
     65  CG2      -88.4580   10.5560  -16.5950 C.3   177  VAL177      0.0020
     66  N        -85.1700   10.4360  -19.6610 N.am  178  GLU178     -0.1966
     67  CA       -84.5750    9.7640  -20.8030 C.3   178  GLU178      0.1733
     68  C        -83.7370    8.6690  -20.1760 C.2   178  GLU178      0.2616
     69  O        -84.0540    8.2510  -19.0550 O.2   178  GLU178     -0.2715
     70  CB       -83.7010   10.7180  -21.6040 C.3   178  GLU178      0.0429
     71  CG       -82.9270   11.7030  -20.7450 C.3   178  GLU178      0.1163
     72  CD       -81.4850   11.2940  -20.5690 C.2   178  GLU178      0.3649
     73  OE1      -81.0210   11.0780  -19.4290 O.co2 178  GLU178     -0.2457
     74  OE2      -80.7830   11.1950  -21.5840 O.co2 178  GLU178     -0.2457
     75  N        -82.6610    8.2290  -20.8310 N.am  179  MET179     -0.1963
     76  CA       -81.9420    7.0790  -20.2800 C.3   179  MET179      0.1736
     77  C        -80.4280    7.1570  -20.3970 C.2   179  MET179      0.2616
     78  O        -79.7820    6.1040  -20.3470 O.2   179  MET179     -0.2715
     79  CB       -82.4260    5.7670  -20.9240 C.3   179  MET179      0.0427
     80  CG       -83.9440    5.5950  -20.8270 C.3   179  MET179      0.0599
     81  SD       -84.6450    4.0630  -21.5140 S.3   179  MET179     -0.1393
     82  CE       -83.3240    2.8930  -21.1020 C.3   179  MET179      0.0692
     83  N        -79.8410    8.3480  -20.5780 N.am  180  GLU180     -0.1977
     84  CA       -78.3910    8.3930  -20.8290 C.3   180  GLU180      0.1602
     85  C        -77.5850    9.4870  -20.0760 C.2   180  GLU180      0.2287
     86  O        -76.3750    9.3090  -19.8140 O.2   180  GLU180     -0.2864
     87  CB       -78.0580    8.4310  -22.3600 C.3   180  GLU180      0.0415
     88  CG       -78.5500    7.2460  -23.2530 C.3   180  GLU180      0.1163
     89  CD       -80.0390    7.3300  -23.5630 C.2   180  GLU180      0.3649
     90  OE1      -80.6900    6.3180  -23.9170 O.co2 180  GLU180     -0.2457
     91  OE2      -80.6150    8.4120  -23.4290 O.co2 180  GLU180     -0.2457
     92  N        -90.9830   13.8630  -26.8720 N.3   202  SER202     -0.1202
     93  CA       -91.6150   12.9350  -27.7720 C.3   202  SER202      0.2020
     94  C        -92.6660   12.0930  -27.0770 C.2   202  SER202      0.2618
     95  O        -92.7830   10.9450  -27.4120 O.2   202  SER202     -0.2717
     96  CB       -90.5350   11.9970  -28.3270 C.3   202  SER202      0.2103
     97  OG       -90.0680   11.0910  -27.3270 O.3   202  SER202     -0.2182
     98  N        -93.4110   12.6550  -26.1260 N.am  203  ASP203     -0.1973
     99  CA       -94.4410   11.9210  -25.3000 C.3   203  ASP203      0.1709
    100  C        -94.5320   12.4310  -23.8290 C.2   203  ASP203      0.2293
    101  O        -93.5670   12.8860  -23.2540 O.2   203  ASP203     -0.2864
    102  CB       -94.3150   10.3550  -25.3620 C.3   203  ASP203      0.1436
    103  CG       -93.1890    9.7750  -24.4360 C.2   203  ASP203      0.3671
    104  OD1      -93.4200    9.5970  -23.2050 O.co2 203  ASP203     -0.2456
    105  OD2      -92.0680    9.4580  -24.9260 O.co2 203  ASP203     -0.2456
    106  N        -95.1060   11.4010  -19.9490 N.3   205  ILE205     -0.1245
    107  CA       -95.3330   10.2570  -19.1120 C.3   205  ILE205      0.1561
    108  C        -96.3760   10.4640  -18.0230 C.2   205  ILE205      0.2260
    109  O        -96.4660    9.6670  -17.1300 O.2   205  ILE205     -0.2867
    110  CB       -94.0280    9.6430  -18.5040 C.3   205  ILE205      0.0252
    111  CG1      -93.7380   10.2240  -17.1480 C.3   205  ILE205      0.0019
    112  CG2      -92.7840    9.7520  -19.4310 C.3   205  ILE205      0.0019
    113  CD1      -92.2470   10.1100  -16.8280 C.3   205  ILE205      0.0001
@<TRIPOS>BOND
     1     4     3    2
     2     3     2    1
     3     1     2    1
     4    30    28    1
     5    96    93    1
     6    96    97    1
     7    28    29    1
     8    28    25    1
     9    93    94    1
    10    93    92    1
    11    95    94    2
    12    24    25    1
    13    12    11    1
    14    94    98   am
    15    25    26    1
    16    15    14    1
    17    15    16    2
    18    11    10    1
    19    10     9    1
    20     5     6    1
    21    14    13    1
    22    14    17    1
    23    98    99    1
    24    22    21    1
    25     9     6    1
    26    26    27    2
    27    26    31   am
    28     6     7    1
    29   102    99    1
    30   102   103    1
    31    18    17    1
    32    18    19    1
    33    99   100    1
    34    31    32    1
    35    21    23    1
    36    21    20    2
    37   105   103   ar
    38   103   104   ar
    39    34    33    2
    40     7     8    2
    41    19    20    1
    42    90    89   ar
    43   100   101    2
    44    58    56   ar
    45    58    57   ar
    46    32    33    1
    47    32    35    1
    48    89    91   ar
    49    89    88    1
    50    56    54   ar
    51    33    37   am
    52    88    87    1
    53    36    35    1
    54    57    55   ar
    55    54    53   ar
    56    87    84    1
    57    55    53   ar
    58    37    38    1
    59    53    52    1
    60    38    39    1
    61    70    67    1
    62    70    71    1
    63    74    72   ar
    64    81    82    1
    65    81    80    1
    66    52    49    1
    67    79    80    1
    68    79    76    1
    69    75    76    1
    70    75    68   am
    71    84    83    1
    72    84    85    1
    73    67    68    1
    74    67    66    1
    75    62    61    2
    76    71    72    1
    77    39    40    2
    78    83    77   am
    79    72    73   ar
    80    77    78    2
    81    77    76    1
    82    68    69    2
    83    85    86    2
    84   106   107    1
    85    61    66   am
    86    61    60    1
    87    49    50    1
    88    49    48    1
    89   112   110    1
    90    50    51    2
    91   107   110    1
    92   107   108    1
    93    59    60    1
    94   110   111    1
    95    60    63    1
    96   108   109    2
    97    64    63    1
    98    63    65    1
    99    47    45    1
   100    44    43    2
   101   111   113    1
   102    43    42    1
   103    41    42    1
   104    45    42    1
   105    45    46    1
