@<TRIPOS>MOLECULE
tmp/2i4wA00.pdb
 129 120 0 0 0
SMALL
GASTEIGER

@<TRIPOS>ATOM
      1  N          2.1340   24.2190   17.5620 N.3     8  ARG8       -0.1245
      2  CA         3.3340   24.8470   17.0110 C.3     8  ARG8        0.1563
      3  C          2.9920   26.2420   16.4800 C.2     8  ARG8        0.2260
      4  O          2.0440   26.4050   15.7060 O.2     8  ARG8       -0.2867
      5  CB         3.8920   23.9880   15.8790 C.3     8  ARG8        0.0307
      6  CG         4.2960   22.5970   16.3180 C.3     8  ARG8        0.0489
      7  CD         4.7490   21.7700   15.1440 C.3     8  ARG8        0.2205
      8  NE         5.2590   20.4710   15.5670 N.pl3   8  ARG8       -0.0865
      9  CZ         5.5100   19.4630   14.7360 C.cat   8  ARG8        0.5346
     10  NH1        5.2920   19.6030   13.4350 N.pl3   8  ARG8        0.1354
     11  NH2        5.9960   18.3180   15.2000 N.pl3   8  ARG8        0.1354
     12  N          8.3330   28.3740   11.5600 N.3    23  LEU23      -0.1245
     13  CA         8.1080   28.2360   12.9940 C.3    23  LEU23       0.1561
     14  C          8.7510   29.3540   13.8120 C.2    23  LEU23       0.2260
     15  O          9.9500   29.5780   13.7000 O.2    23  LEU23      -0.2867
     16  CB         8.6850   26.8900   13.4360 C.3    23  LEU23       0.0270
     17  CG         8.5240   26.3730   14.8570 C.3    23  LEU23       0.0019
     18  CD1        7.0590   26.0930   15.1600 C.3    23  LEU23       0.0001
     19  CD2        9.3410   25.0940   14.9710 C.3    23  LEU23       0.0001
     20  N         10.5440   30.4200   16.4690 N.3    25  ASP25      -0.1239
     21  CA        11.3890   29.6350   17.3480 C.3    25  ASP25       0.1674
     22  C         12.3380   30.4110   18.2610 C.2    25  ASP25       0.2266
     23  O         13.4230   30.8070   17.8390 O.2    25  ASP25      -0.2867
     24  CB        12.1770   28.6730   16.4530 C.3    25  ASP25       0.1410
     25  CG        12.8360   27.5490   17.2160 C.2    25  ASP25       0.3668
     26  OD1       12.8170   27.5590   18.4610 O.co2  25  ASP25      -0.2456
     27  OD2       13.3830   26.6480   16.5470 O.co2  25  ASP25      -0.2456
     28  N         14.0990   29.1810   20.5450 N.3    27  GLY27      -0.1210
     29  CA        15.2730   28.3670   20.8180 C.3    27  GLY27       0.1956
     30  C         16.2990   28.4020   19.6910 C.2    27  GLY27       0.2612
     31  O         17.3510   27.7640   19.7760 O.2    27  GLY27      -0.2717
     32  N         15.9760   29.1260   18.6230 N.am   28  ALA28      -0.1965
     33  CA        16.8650   29.2580   17.4740 C.3    28  ALA28       0.1728
     34  C         17.5070   30.6420   17.4470 C.2    28  ALA28       0.2616
     35  O         16.7970   31.6520   17.4390 O.2    28  ALA28      -0.2715
     36  CB        16.0870   29.0300   16.1950 C.3    28  ALA28       0.0334
     37  N         18.8400   30.6940   17.4280 N.am   29  ASP29      -0.1957
     38  CA        19.5350   31.9810   17.3790 C.3    29  ASP29       0.1840
     39  C         19.2440   32.6280   16.0290 C.2    29  ASP29       0.2622
     40  O         18.9710   33.8240   15.9470 O.2    29  ASP29      -0.2715
     41  CB        21.0560   31.8210   17.5120 C.3    29  ASP29       0.1450
     42  CG        21.4850   31.1700   18.8190 C.2    29  ASP29       0.3671
     43  OD1       20.7710   31.2560   19.8420 O.co2  29  ASP29      -0.2456
     44  OD2       22.5740   30.5650   18.8120 O.co2  29  ASP29      -0.2456
     45  N         19.2830   31.8180   14.9720 N.am   30  ASP30      -0.1971
     46  CA        19.0490   32.3210   13.6220 C.3    30  ASP30       0.1709
     47  C         17.8910   31.6690   12.8820 C.2    30  ASP30       0.2293
     48  O         17.4170   30.5890   13.2410 O.2    30  ASP30      -0.2864
     49  CB        20.3080   32.1540   12.7660 C.3    30  ASP30       0.1436
     50  CG        21.4890   32.9300   13.3040 C.2    30  ASP30       0.3671
     51  OD1       21.6250   34.1290   12.9710 O.co2  30  ASP30      -0.2456
     52  OD2       22.2810   32.3300   14.0560 O.co2  30  ASP30      -0.2456
     53  N         16.4590   29.6980    9.8800 N.3    32  VAL32      -0.1245
     54  CA        16.9890   28.6800    8.9810 C.3    32  VAL32       0.1561
     55  C         15.8630   28.2140    8.0610 C.2    32  VAL32       0.2260
     56  O         14.8100   27.7970    8.5290 O.2    32  VAL32      -0.2867
     57  CB        17.5510   27.4570    9.7560 C.3    32  VAL32       0.0252
     58  CG1       18.4050   26.5940    8.8220 C.3    32  VAL32       0.0019
     59  CG2       18.3520   27.9050   10.9840 C.3    32  VAL32       0.0019
     60  N         28.5280   27.9050    6.4760 N.3    45  LYS45      -0.1245
     61  CA        28.4520   27.8050    7.9300 C.3    45  LYS45       0.1561
     62  C         27.8730   26.4580    8.3440 C.2    45  LYS45       0.2260
     63  O         27.1920   25.8070    7.5630 O.2    45  LYS45      -0.2867
     64  CB        27.5580   28.9380    8.4640 C.3    45  LYS45       0.0271
     65  CG        27.4730   29.0480    9.9720 C.3    45  LYS45       0.0035
     66  CD        26.5570   30.1860   10.3880 C.3    45  LYS45       0.0206
     67  CE        26.5130   30.3460   11.9060 C.3    45  LYS45       0.1093
     68  NZ        27.8520   30.6740   12.4960 N.3    45  LYS45      -0.1314
     69  N         25.6020   24.6690   11.3980 N.3    47  ILE47      -0.1231
     70  CA        24.7640   24.9030   12.5660 C.3    47  ILE47       0.1692
     71  C         24.3160   23.5730   13.1540 C.2    47  ILE47       0.2593
     72  O         23.9980   22.6320   12.4260 O.2    47  ILE47      -0.2718
     73  CB        23.5540   25.8140   12.2640 C.3    47  ILE47       0.0266
     74  CG1       22.7070   25.2390   11.1300 C.3    47  ILE47       0.0019
     75  CG2       24.0300   27.2170   11.9280 C.3    47  ILE47       0.0020
     76  CD1       21.4080   25.9850   10.9280 C.3    47  ILE47       0.0001
     77  N         24.3540   23.4820   14.4780 N.am   48  GLY48      -0.1942
     78  CA        23.9750   22.2510   15.1400 C.3    48  GLY48       0.2014
     79  C         22.7790   22.3600   16.0530 C.2    48  GLY48       0.2639
     80  O         22.4210   23.4410   16.5140 O.2    48  GLY48      -0.2714
     81  N         22.1560   21.2170   16.2990 N.am   49  GLY49      -0.1939
     82  CA        20.9990   21.1530   17.1690 C.3    49  GLY49       0.2014
     83  C         20.8120   19.6970   17.5020 C.2    49  GLY49       0.2638
     84  O         21.7800   18.9370   17.4970 O.2    49  GLY49      -0.2714
     85  N         19.5880   19.2990   17.8160 N.am   50  ILE50      -0.1977
     86  CA        19.3350   17.9010   18.1110 C.3    50  ILE50       0.1596
     87  C         19.5700   17.0990   16.8280 C.2    50  ILE50       0.2287
     88  O         19.0730   17.4540   15.7560 O.2    50  ILE50      -0.2864
     89  CB        17.9040   17.6940   18.6670 C.3    50  ILE50       0.0276
     90  CG1       17.8660   18.1380   20.1340 C.3    50  ILE50       0.0022
     91  CG2       17.4750   16.2380   18.5360 C.3    50  ILE50       0.0022
     92  CD1       16.5230   18.0010   20.7860 C.3    50  ILE50       0.0001
     93  N         19.7760   31.6510    7.0960 N.3    76  LEU76      -0.1245
     94  CA        20.6280   30.4970    6.8480 C.3    76  LEU76       0.1561
     95  C         19.7920   29.5560    5.9840 C.2    76  LEU76       0.2260
     96  O         18.6680   29.2140    6.3430 O.2    76  LEU76      -0.2867
     97  CB        21.0160   29.8180    8.1640 C.3    76  LEU76       0.0270
     98  CG        21.6790   30.7140    9.2120 C.3    76  LEU76       0.0019
     99  CD1       22.0590   29.8840   10.4280 C.3    76  LEU76       0.0001
    100  CD2       22.9010   31.3960    8.6260 C.3    76  LEU76       0.0001
    101  N         17.3910   21.9790    6.2870 N.3    80  THR80      -0.1204
    102  CA        16.7110   21.9290    7.5770 C.3    80  THR80       0.1979
    103  C         15.3740   21.2240    7.3670 C.2    80  THR80       0.2460
    104  O         14.6850   21.4660    6.3720 O.2    80  THR80      -0.2732
    105  CB        16.4610   23.3390    8.1720 C.3    80  THR80       0.1783
    106  OG1       15.7050   23.2150    9.3880 O.3    80  THR80      -0.2211
    107  CG2       15.7080   24.2290    7.1810 C.3    80  THR80       0.0376
    108  N         14.9890   20.3410    8.3020 N.am   81  PRO81      -0.2717
    109  CA        13.7270   19.5990    8.2150 C.3    81  PRO81       0.1535
    110  C         12.4800   20.4780    8.3150 C.2    81  PRO81       0.2598
    111  O         11.4020   20.0840    7.8740 O.2    81  PRO81      -0.2715
    112  CB        13.8330   18.6160    9.3800 C.3    81  PRO81       0.0310
    113  CG        14.6490   19.3720   10.3750 C.3    81  PRO81       0.0237
    114  CD        15.7300   19.9670    9.5180 C.3    81  PRO81       0.0939
    115  N         12.6360   21.6770    8.8680 N.am   82  VAL82      -0.1978
    116  CA        11.5160   22.6040    9.0130 C.3    82  VAL82       0.1596
    117  C         12.0180   24.0490    8.9410 C.2    82  VAL82       0.2287
    118  O         13.1410   24.3390    9.3520 O.2    82  VAL82      -0.2864
    119  CB        10.7810   22.3860   10.3680 C.3    82  VAL82       0.0276
    120  CG1       11.6710   22.7700   11.5160 C.3    82  VAL82       0.0022
    121  CG2        9.5100   23.1890   10.4220 C.3    82  VAL82       0.0022
    122  N         12.4830   27.6760   10.0920 N.3    84  ILE84      -0.1245
    123  CA        12.5700   28.2340   11.4320 C.3    84  ILE84       0.1561
    124  C         12.8880   29.7180   11.4390 C.2    84  ILE84       0.2260
    125  O         13.8140   30.1600   10.7640 O.2    84  ILE84      -0.2867
    126  CB        13.7100   27.5230   12.2040 C.3    84  ILE84       0.0252
    127  CG1       13.3490   26.0620   12.4720 C.3    84  ILE84       0.0019
    128  CG2       14.0500   28.2620   13.4910 C.3    84  ILE84       0.0019
    129  CD1       14.5630   25.2060   12.7940 C.3    84  ILE84       0.0001
@<TRIPOS>BOND
     1    95    96    2
     2    95    94    1
     3   101   102    1
     4   104   103    2
     5    60    61    1
     6    94    93    1
     7    94    97    1
     8   107   105    1
     9   103   102    1
    10   103   108   am
    11    63    62    2
    12   102   105    1
    13   111   110    2
    14    61    62    1
    15    61    64    1
    16    55    56    2
    17    55    54    1
    18    97    98    1
    19   105   106    1
    20   109   108    1
    21   109   110    1
    22   109   112    1
    23   108   114    1
    24   110   115   am
    25    64    65    1
    26   100    98    1
    27    58    57    1
    28   115   116    1
    29   117   116    1
    30   117   118    2
    31    54    57    1
    32    54    53    1
    33   116   119    1
    34    98    99    1
    35   112   113    1
    36   114   113    1
    37    57    59    1
    38    65    66    1
    39   122   123    1
    40   119   121    1
    41   119   120    1
    42    66    67    1
    43   125   124    2
    44    76    74    1
    45    74    73    1
    46    69    70    1
    47   123   124    1
    48   123   126    1
    49    12    13    1
    50    67    68    1
    51    75    73    1
    52   126   127    1
    53   126   128    1
    54    73    70    1
    55    72    71    2
    56   127   129    1
    57    70    71    1
    58    49    50    1
    59    49    46    1
    60    47    48    2
    61    47    46    1
    62    51    50   ar
    63    13    16    1
    64    13    14    1
    65    71    77   am
    66    50    52   ar
    67    10     9    1
    68    16    17    1
    69    46    45    1
    70    15    14    2
    71    77    78    1
    72     9    11    1
    73     9     8    2
    74    17    19    1
    75    17    18    1
    76    45    39   am
    77    78    79    1
    78     7     8    1
    79     7     6    1
    80     4     3    2
    81    88    87    2
    82     5     6    1
    83     5     2    1
    84    40    39    2
    85    39    38    1
    86    79    81   am
    87    79    80    2
    88    36    33    1
    89    81    82    1
    90    24    25    1
    91    24    21    1
    92    20    21    1
    93     3     2    1
    94    27    25   ar
    95    87    86    1
    96     2     1    1
    97    82    83    1
    98    25    26   ar
    99    21    22    1
   100    38    37    1
   101    38    41    1
   102    37    34   am
   103    35    34    2
   104    34    33    1
   105    33    32    1
   106    84    83    2
   107    83    85   am
   108    41    42    1
   109    85    86    1
   110    23    22    2
   111    86    89    1
   112    91    89    1
   113    32    30   am
   114    89    90    1
   115    44    42   ar
   116    42    43   ar
   117    30    31    2
   118    30    29    1
   119    90    92    1
   120    28    29    1
