@<TRIPOS>MOLECULE
tmp/2i51A00.pdb
 115 110 0 0 0
SMALL
GASTEIGER

@<TRIPOS>ATOM
      1  N         49.3490   57.1220   11.7300 N.3    24  TYR24      -0.1241
      2  CA        48.3350   58.1540   11.8160 C.3    24  TYR24       0.1605
      3  C         49.0320   59.5020   11.9520 C.2    24  TYR24       0.2264
      4  O         50.0130   59.6540   12.7100 O.2    24  TYR24      -0.2867
      5  CB        47.4350   57.9540   13.0230 C.3    24  TYR24       0.0534
      6  CG        46.6970   56.6650   13.1030 C.ar   24  TYR24      -0.0201
      7  CD1       46.5520   55.8370   12.0250 C.ar   24  TYR24      -0.0009
      8  CD2       46.1590   56.2680   14.3100 C.ar   24  TYR24      -0.0009
      9  CE1       45.8810   54.6020   12.1610 C.ar   24  TYR24       0.0417
     10  CE2       45.5030   55.0930   14.4500 C.ar   24  TYR24       0.0417
     11  CZ        45.3610   54.2730   13.3880 C.ar   24  TYR24       0.1957
     12  OH        44.6870   53.0440   13.5330 O.3    24  TYR24      -0.2866
     13  N         42.9980   67.5690   11.5110 N.3    39  ARG39      -0.1231
     14  CA        42.4090   66.2430   11.8030 C.3    39  ARG39       0.1694
     15  C         43.3550   65.1430   11.4610 C.2    39  ARG39       0.2593
     16  O         44.2400   65.3020   10.6220 O.2    39  ARG39      -0.2718
     17  CB        41.0900   66.0440   11.0700 C.3    39  ARG39       0.0321
     18  CG        41.1960   65.6610    9.6400 C.3    39  ARG39       0.0489
     19  CD        41.6670   66.7740    8.7220 C.3    39  ARG39       0.2205
     20  NE        40.7150   67.8550    8.5520 N.pl3  39  ARG39      -0.0865
     21  CZ        40.9420   69.0550    8.0220 C.cat  39  ARG39       0.5346
     22  NH1       42.1860   69.5070    7.7850 N.pl3  39  ARG39       0.1354
     23  NH2       39.9250   69.8380    7.7920 N.pl3  39  ARG39       0.1354
     24  N         43.1270   63.9840   12.0720 N.am   40  THR40      -0.1939
     25  CA        43.9430   62.8250   11.8430 C.3    40  THR40       0.2028
     26  C         43.5310   62.1070   10.5580 C.2    40  THR40       0.2642
     27  O         42.3120   61.9760   10.2910 O.2    40  THR40      -0.2714
     28  CB        43.8580   61.8510   13.0360 C.3    40  THR40       0.1808
     29  OG1       44.2570   62.5470   14.2340 O.3    40  THR40      -0.2208
     30  CG2       44.7730   60.6260   12.8510 C.3    40  THR40       0.0379
     31  N         44.5280   61.6460    9.8030 N.am   41  LEU41      -0.1963
     32  CA        44.3210   60.7700    8.6770 C.3    41  LEU41       0.1728
     33  C         45.2610   59.5970    8.7910 C.2    41  LEU41       0.2616
     34  O         46.2650   59.6630    9.4830 O.2    41  LEU41      -0.2715
     35  CB        44.6690   61.4430    7.3510 C.3    41  LEU41       0.0311
     36  CG        44.0780   62.8200    7.1020 C.3    41  LEU41       0.0022
     37  CD1       44.6870   63.4310    5.7980 C.3    41  LEU41       0.0001
     38  CD2       42.6320   62.6480    7.0500 C.3    41  LEU41       0.0001
     39  N         44.9790   58.4990    8.0900 N.am   42  VAL42      -0.1977
     40  CA        45.9180   57.3800    7.9350 C.3    42  VAL42       0.1596
     41  C         46.8330   57.5750    6.7500 C.2    42  VAL42       0.2287
     42  O         46.3530   57.8100    5.6290 O.2    42  VAL42      -0.2864
     43  CB        45.1200   56.0730    7.7030 C.3    42  VAL42       0.0276
     44  CG1       46.0850   54.8560    7.5080 C.3    42  VAL42       0.0022
     45  CG2       44.1420   55.8140    8.8720 C.3    42  VAL42       0.0022
     46  N         48.8540   56.2920    3.8130 N.3    44  ARG44      -0.1245
     47  CA        48.6610   55.1340    2.9400 C.3    44  ARG44       0.1563
     48  C         49.8040   54.9380    1.9520 C.2    44  ARG44       0.2260
     49  O         49.5830   54.5100    0.8060 O.2    44  ARG44      -0.2867
     50  CB        47.3260   55.2620    2.2160 C.3    44  ARG44       0.0307
     51  CG        46.1840   55.5490    3.1920 C.3    44  ARG44       0.0489
     52  CD        44.8980   54.9420    2.8300 C.3    44  ARG44       0.2205
     53  NE        43.9150   54.9150    3.9200 N.pl3  44  ARG44      -0.0865
     54  CZ        43.4410   53.7880    4.4760 C.cat  44  ARG44       0.5346
     55  NH1       43.9050   52.6080    4.1200 N.pl3  44  ARG44       0.1354
     56  NH2       42.5420   53.8380    5.4430 N.pl3  44  ARG44       0.1354
     57  N         43.2540   58.9540    1.7510 N.3    56  ILE56      -0.1231
     58  CA        41.9070   58.9200    1.1920 C.3    56  ILE56       0.1692
     59  C         41.0030   59.7980    2.0200 C.2    56  ILE56       0.2593
     60  O         41.2510   60.0090    3.2300 O.2    56  ILE56      -0.2718
     61  CB        41.3610   57.4780    1.1090 C.3    56  ILE56       0.0266
     62  CG1       41.0220   56.8940    2.4730 C.3    56  ILE56       0.0019
     63  CG2       42.3030   56.6230    0.2840 C.3    56  ILE56       0.0020
     64  CD1       40.4670   55.4340    2.4740 C.3    56  ILE56       0.0001
     65  N         39.9590   60.2960    1.3810 N.am   57  THR57      -0.1939
     66  CA        38.9480   61.0880    2.0760 C.3    57  THR57       0.2028
     67  C         37.6670   61.0700    1.2810 C.2    57  THR57       0.2642
     68  O         37.6510   60.6790    0.1090 O.2    57  THR57      -0.2714
     69  CB        39.4300   62.5030    2.4140 C.3    57  THR57       0.1808
     70  OG1       38.6670   63.0370    3.5050 O.3    57  THR57      -0.2208
     71  CG2       39.3780   63.4160    1.1930 C.3    57  THR57       0.0379
     72  N         36.5870   61.4700    1.9260 N.am   58  ASP58      -0.1971
     73  CA        35.2650   61.5220    1.3150 C.3    58  ASP58       0.1709
     74  C         35.0090   62.9110    0.7230 C.2    58  ASP58       0.2293
     75  O         35.2880   63.9280    1.3720 O.2    58  ASP58      -0.2864
     76  CB        34.2380   61.1930    2.4070 C.3    58  ASP58       0.1436
     77  CG        32.8770   60.8350    1.8860 C.2    58  ASP58       0.3671
     78  OD1       32.2790   61.5900    1.1030 O.co2  58  ASP58      -0.2456
     79  OD2       32.4060   59.7510    2.2860 O.co2  58  ASP58      -0.2456
     80  N         33.1390   65.3750    2.9130 N.3    61  SER61      -0.1202
     81  CA        33.7280   65.9490    4.1300 C.3    61  SER61       0.2020
     82  C         34.0990   67.4370    3.9580 C.2    61  SER61       0.2619
     83  O         34.3130   67.9690    2.8630 O.2    61  SER61      -0.2717
     84  CB        34.9210   65.1500    4.5720 C.3    61  SER61       0.2103
     85  OG        35.9770   65.3150    3.6690 O.3    61  SER61      -0.2182
     86  N         34.1460   68.1520    5.0920 N.am   62  ALA62      -0.1965
     87  CA        34.4860   69.5470    5.0550 C.3    62  ALA62       0.1728
     88  C         35.8390   69.8430    4.4330 C.2    62  ALA62       0.2616
     89  O         36.0040   70.8820    3.7580 O.2    62  ALA62      -0.2715
     90  CB        34.4690   70.1190    6.4770 C.3    62  ALA62       0.0334
     91  N         36.8100   68.9640    4.6620 N.am   63  LYS63      -0.1977
     92  CA        38.1600   69.2390    4.2130 C.3    63  LYS63       0.1596
     93  C         38.1750   69.2810    2.6860 C.2    63  LYS63       0.2287
     94  O         39.0100   69.9320    2.1080 O.2    63  LYS63      -0.2864
     95  CB        39.1650   68.2160    4.7050 C.3    63  LYS63       0.0298
     96  CG        39.1840   66.8610    3.9530 C.3    63  LYS63       0.0038
     97  CD        40.1080   65.8540    4.5870 C.3    63  LYS63       0.0206
     98  CE        39.5530   65.2200    5.8280 C.3    63  LYS63       0.1093
     99  NZ        38.1190   64.7100    5.7300 N.3    63  LYS63      -0.1314
    100  N         37.6120   72.7370    1.6420 N.3    66  GLN66      -0.1245
    101  CA        38.7170   73.5780    2.1150 C.3    66  GLN66       0.1566
    102  C         39.9100   73.4080    1.1710 C.2    66  GLN66       0.2260
    103  O         40.5660   74.3820    0.8150 O.2    66  GLN66      -0.2867
    104  CB        39.1590   73.2040    3.5340 C.3    66  GLN66       0.0367
    105  CG        38.0640   73.4050    4.6300 C.3    66  GLN66       0.0905
    106  CD        38.3760   72.7190    5.9290 C.2    66  GLN66       0.2608
    107  OE1       39.4870   72.2310    6.1530 O.2    66  GLN66      -0.2717
    108  NE2       37.3830   72.6720    6.8150 N.am   66  GLN66      -0.0878
    109  N         28.4930   62.7260    6.2340 N.3   126  PRO126     -0.2116
    110  CA        29.2550   63.1070    7.4080 C.3   126  PRO126      0.1372
    111  C         28.8670   64.4730    7.9320 C.2   126  PRO126      0.2244
    112  O         28.6410   65.4100    7.1490 O.2   126  PRO126     -0.2868
    113  CB        30.6990   63.1290    6.9060 C.3   126  PRO126      0.0268
    114  CG        30.6100   63.2930    5.4740 C.3   126  PRO126      0.0207
    115  CD        29.3650   62.5180    5.0720 C.3   126  PRO126      0.0892
@<TRIPOS>BOND
     1    68    67    2
     2    63    61    1
     3    74    73    1
     4    74    75    2
     5    49    48    2
     6   103   102    2
     7    78    77   ar
     8    61    58    1
     9    61    62    1
    10   102   101    1
    11    58    57    1
    12    58    59    1
    13    71    69    1
    14    67    72   am
    15    67    66    1
    16    73    72    1
    17    73    76    1
    18    65    59   am
    19    65    66    1
    20   100   101    1
    21    77    79   ar
    22    77    76    1
    23    48    47    1
    24    59    60    2
    25    66    69    1
    26    94    93    2
    27   101   104    1
    28    50    47    1
    29    50    51    1
    30    69    70    1
    31    62    64    1
    32    93    92    1
    33    52    51    1
    34    52    53    1
    35    83    82    2
    36    80    81    1
    37    47    46    1
    38   104   105    1
    39    85    84    1
    40    89    88    2
    41    53    54    2
    42    96    97    1
    43    96    95    1
    44    82    81    1
    45    82    86   am
    46    55    54    1
    47    81    84    1
    48    92    91    1
    49    92    95    1
    50    88    91   am
    51    88    87    1
    52    54    56    1
    53    97    98    1
    54   105   106    1
    55    87    86    1
    56    87    90    1
    57   115   114    1
    58   115   109    1
    59   114   113    1
    60    42    41    2
    61    99    98    1
    62    37    36    1
    63   106   107    2
    64   106   108   am
    65   109   110    1
    66    41    40    1
    67   113   110    1
    68    38    36    1
    69    36    35    1
    70   112   111    2
    71    35    32    1
    72   110   111    1
    73    44    43    1
    74    43    40    1
    75    43    45    1
    76    22    21    1
    77    23    21    1
    78    40    39    1
    79    21    20    2
    80    39    33   am
    81    20    19    1
    82    32    33    1
    83    32    31    1
    84    19    18    1
    85    33    34    2
    86    18    17    1
    87    31    26   am
    88    27    26    2
    89    26    25    1
    90    16    15    2
    91    17    14    1
    92    15    14    1
    93    15    24   am
    94    13    14    1
    95     1     2    1
    96     2     3    1
    97     2     5    1
    98    25    24    1
    99    25    28    1
   100     3     4    2
   101     7     9   ar
   102     7     6   ar
   103     9    11   ar
   104    30    28    1
   105     5     6    1
   106    28    29    1
   107     6     8   ar
   108    11    12    1
   109    11    10   ar
   110     8    10   ar
