@<TRIPOS>MOLECULE
tmp/2i54A00.pdb
 91 84 0 0 0
SMALL
GASTEIGER

@<TRIPOS>ATOM
      1  N         47.3500   -3.1520   40.4280 N.3    16  ARG16      -0.1245
      2  CA        47.6650   -3.3580   41.8550 C.3    16  ARG16       0.1563
      3  C         49.1630   -3.5950   42.1170 C.2    16  ARG16       0.2260
      4  O         49.5560   -4.6120   42.7000 O.2    16  ARG16      -0.2867
      5  CB        46.8180   -4.4750   42.4890 C.3    16  ARG16       0.0307
      6  CG        45.3170   -4.1960   42.5270 C.3    16  ARG16       0.0489
      7  CD        44.5080   -4.9120   41.4420 C.3    16  ARG16       0.2205
      8  NE        43.0800   -4.9700   41.7740 N.pl3  16  ARG16      -0.0865
      9  CZ        42.5290   -5.8050   42.6660 C.cat  16  ARG16       0.5346
     10  NH1       43.2770   -6.6740   43.3460 N.pl3  16  ARG16       0.1354
     11  NH2       41.2160   -5.7690   42.8850 N.pl3  16  ARG16       0.1354
     12  N         30.8870    7.8830   52.1230 N.3   119  ARG119     -0.1245
     13  CA        32.2710    8.1980   51.8160 C.3   119  ARG119      0.1563
     14  C         32.3310    9.6350   51.3620 C.2   119  ARG119      0.2260
     15  O         31.3160   10.2660   51.1680 O.2   119  ARG119     -0.2867
     16  CB        32.8390    7.1950   50.7760 C.3   119  ARG119      0.0307
     17  CG        32.4640    5.7680   51.1640 C.3   119  ARG119      0.0489
     18  CD        33.4310    4.6500   50.8260 C.3   119  ARG119      0.2205
     19  NE        33.4470    4.3400   49.4250 N.pl3 119  ARG119     -0.0865
     20  CZ        33.4260    3.1180   48.8560 C.cat 119  ARG119      0.5346
     21  NH1       33.3150    1.9770   49.5310 N.pl3 119  ARG119      0.1354
     22  NH2       33.4880    3.0620   47.5440 N.pl3 119  ARG119      0.1354
     23  N         28.2340    4.0720   49.1590 N.3   124  ASN124     -0.1240
     24  CA        28.4190    2.6930   48.7060 C.3   124  ASN124      0.1653
     25  C         27.3730    1.8580   49.4430 C.2   124  ASN124      0.2266
     26  O         27.2900    1.9100   50.6670 O.2   124  ASN124     -0.2867
     27  CB        29.8270    2.1780   48.9920 C.3   124  ASN124      0.1155
     28  CG        30.0290    0.7600   48.4900 C.2   124  ASN124      0.2627
     29  OD1       29.9320   -0.1860   49.2600 O.2   124  ASN124     -0.2716
     30  ND2       30.2550    0.6040   47.1810 N.am  124  ASN124     -0.0877
     31  N         29.0420   -5.1830   53.5480 N.3   130  ARG130     -0.1245
     32  CA        30.4450   -5.4990   53.3040 C.3   130  ARG130      0.1563
     33  C         31.1850   -6.2520   54.3830 C.2   130  ARG130      0.2260
     34  O         32.2870   -6.7320   54.1250 O.2   130  ARG130     -0.2867
     35  CB        31.2900   -4.3230   52.7830 C.3   130  ARG130      0.0307
     36  CG        30.9400   -2.9280   53.1160 C.3   130  ARG130      0.0489
     37  CD        31.3350   -1.9240   52.0080 C.3   130  ARG130      0.2205
     38  NE        32.6190   -2.2360   51.4000 N.pl3 130  ARG130     -0.0865
     39  CZ        32.8450   -2.3950   50.0940 C.cat 130  ARG130      0.5346
     40  NH1       31.8960   -2.2150   49.1960 N.pl3 130  ARG130      0.1354
     41  NH2       34.0580   -2.6910   49.6820 N.pl3 130  ARG130      0.1354
     42  N         30.5190  -13.3470   49.5120 N.3   137  ARG137     -0.1245
     43  CA        30.4960  -12.4400   48.3670 C.3   137  ARG137      0.1563
     44  C         30.2460  -13.2500   47.0980 C.2   137  ARG137      0.2260
     45  O         29.4800  -12.8130   46.2590 O.2   137  ARG137     -0.2867
     46  CB        31.8190  -11.6910   48.2030 C.3   137  ARG137      0.0307
     47  CG        32.1710  -10.7330   49.3230 C.3   137  ARG137      0.0489
     48  CD        33.3010   -9.7800   48.9650 C.3   137  ARG137      0.2205
     49  NE        33.4370   -8.7620   49.9890 N.pl3 137  ARG137     -0.0865
     50  CZ        34.0440   -7.5820   49.8560 C.cat 137  ARG137      0.5346
     51  NH1       34.6240   -7.2280   48.7220 N.pl3 137  ARG137      0.1354
     52  NH2       34.0580   -6.7400   50.8950 N.pl3 137  ARG137      0.1354
     53  N         29.0900   -2.3750   41.3520 N.3   171  GLY171     -0.1210
     54  CA        30.4470   -2.6650   41.7750 C.3   171  GLY171      0.1956
     55  C         30.7210   -4.1260   41.5760 C.2   171  GLY171      0.2612
     56  O         29.9170   -4.8450   40.9650 O.2   171  GLY171     -0.2717
     57  N         31.8870   -4.5480   42.0340 N.am  172  GLY172     -0.1942
     58  CA        32.2750   -5.9360   41.9980 C.3   172  GLY172      0.2014
     59  C         31.1130   -6.8630   42.2560 C.2   172  GLY172      0.2639
     60  O         30.3050   -7.1020   41.3580 O.2   172  GLY172     -0.2714
     61  N         31.0360   -7.3910   43.4650 N.am  173  GLN173     -0.1963
     62  CA        30.1790   -8.5320   43.7430 C.3   173  GLN173      0.1733
     63  C         28.9940   -8.1910   44.6210 C.2   173  GLN173      0.2616
     64  O         27.9370   -8.8170   44.5010 O.2   173  GLN173     -0.2715
     65  CB        30.9930   -9.5930   44.4720 C.3   173  GLN173      0.0408
     66  CG        32.1150  -10.1790   43.6580 C.3   173  GLN173      0.0908
     67  CD        32.8280  -11.2720   44.4060 C.2   173  GLN173      0.2608
     68  OE1       33.6630  -10.9890   45.2540 O.2   173  GLN173     -0.2717
     69  NE2       32.4910  -12.5200   44.1140 N.am  173  GLN173     -0.0878
     70  N         29.1670   -7.2240   45.5270 N.am  174  ILE174     -0.1963
     71  CA        28.1940   -7.0430   46.5810 C.3   174  ILE174      0.1727
     72  C         27.5860   -5.6480   46.6830 C.2   174  ILE174      0.2616
     73  O         26.6920   -5.4490   47.5140 O.2   174  ILE174     -0.2715
     74  CB        28.7990   -7.4810   47.9530 C.3   174  ILE174      0.0290
     75  CG1       30.0110   -6.6410   48.3490 C.3   174  ILE174      0.0022
     76  CG2       29.1730   -8.9600   47.9330 C.3   174  ILE174      0.0023
     77  CD1       30.4030   -6.8380   49.7810 C.3   174  ILE174      0.0001
     78  N         28.0440   -4.6890   45.8740 N.am  175  SER175     -0.1950
     79  CA        27.6600   -3.2930   46.0800 C.3   175  SER175      0.1924
     80  C         27.4420   -2.4650   44.8080 C.2   175  SER175      0.2314
     81  O         27.7400   -2.8890   43.6970 O.2   175  SER175     -0.2863
     82  CB        28.6880   -2.5830   46.9680 C.3   175  SER175      0.2116
     83  OG        29.8100   -2.1570   46.2170 O.3   175  SER175     -0.2180
     84  N         27.7500    1.9740   43.8290 N.3   177  ASP177     -0.1239
     85  CA        28.0980    3.3330   44.1900 C.3   177  ASP177      0.1674
     86  C         27.0200    4.3100   43.6850 C.2   177  ASP177      0.2266
     87  O         26.4250    4.1310   42.6140 O.2   177  ASP177     -0.2867
     88  CB        29.4330    3.7290   43.5840 C.3   177  ASP177      0.1410
     89  CG        30.5840    2.7920   43.9920 C.2   177  ASP177      0.3668
     90  OD1       31.6040    2.8240   43.2980 O.co2 177  ASP177     -0.2456
     91  OD2       30.5840    2.0230   44.9790 O.co2 177  ASP177     -0.2456
@<TRIPOS>BOND
     1     1     2    1
     2    56    55    2
     3    53    54    1
     4    60    59    2
     5     7     8    1
     6     7     6    1
     7    55    54    1
     8    55    57   am
     9     8     9    2
    10     2     3    1
    11     2     5    1
    12    58    57    1
    13    58    59    1
    14     3     4    2
    15    59    61   am
    16     5     6    1
    17    87    86    2
    18     9    11    1
    19     9    10    1
    20    90    89   ar
    21    61    62    1
    22    88    89    1
    23    88    85    1
    24    66    67    1
    25    66    65    1
    26    86    85    1
    27    81    80    2
    28    62    65    1
    29    62    63    1
    30    84    85    1
    31    89    91   ar
    32    69    67   am
    33    67    68    2
    34    64    63    2
    35    63    70   am
    36    80    79    1
    37    70    71    1
    38    78    79    1
    39    78    72   am
    40    79    82    1
    41    83    82    1
    42    45    44    2
    43    71    72    1
    44    71    74    1
    45    72    73    2
    46    44    43    1
    47    30    28   am
    48    22    20    1
    49    76    74    1
    50    74    75    1
    51    46    43    1
    52    46    47    1
    53    75    77    1
    54    43    42    1
    55    28    27    1
    56    28    29    2
    57    24    27    1
    58    24    23    1
    59    24    25    1
    60    51    50    1
    61    20    19    2
    62    20    21    1
    63    48    47    1
    64    48    49    1
    65    40    39    1
    66    19    18    1
    67    25    26    2
    68    41    39    1
    69    50    49    2
    70    50    52    1
    71    39    38    2
    72    16    17    1
    73    16    13    1
    74    18    17    1
    75    15    14    2
    76    14    13    1
    77    38    37    1
    78    13    12    1
    79    37    36    1
    80    35    36    1
    81    35    32    1
    82    32    31    1
    83    32    33    1
    84    34    33    2
