@<TRIPOS>MOLECULE
tmp/2i55B00.pdb
 143 132 0 0 0
SMALL
GASTEIGER

@<TRIPOS>ATOM
      1  N         53.2580    9.6730  -12.3650 N.3     7  ASP7       -0.1225
      2  CA        52.1240    9.9130  -11.5090 C.3     7  ASP7        0.1805
      3  C         50.9300   10.0810  -12.4330 C.2     7  ASP7        0.2598
      4  O         51.0790   10.2310  -13.6500 O.2     7  ASP7       -0.2718
      5  CB        52.3670   11.1660  -10.6870 C.3     7  ASP7        0.1424
      6  CG        51.3180   11.4010   -9.6420 C.2     7  ASP7        0.3668
      7  OD1       50.5750   10.4510   -9.2580 O.co2   7  ASP7       -0.2456
      8  OD2       51.2510   12.5670   -9.2020 O.co2   7  ASP7       -0.2456
      9  N         49.7320   10.0230  -11.8740 N.am    8  VAL8       -0.1966
     10  CA        48.5410    9.9940  -12.7060 C.3     8  VAL8        0.1727
     11  C         47.9140   11.3840  -12.7760 C.2     8  VAL8        0.2616
     12  O         48.2090   12.1400  -13.7080 O.2     8  VAL8       -0.2715
     13  CB        47.5790    8.8890  -12.2370 C.3     8  VAL8        0.0290
     14  CG1       46.2620    8.9670  -12.9850 C.3     8  VAL8        0.0023
     15  CG2       48.2320    7.5160  -12.4660 C.3     8  VAL8        0.0023
     16  N         47.0920   11.7410  -11.7890 N.am    9  ASP9       -0.1971
     17  CA        46.3520   12.9880  -11.8800 C.3     9  ASP9        0.1709
     18  C         47.3390   14.1380  -11.8290 C.2     9  ASP9        0.2293
     19  O         48.3670   14.0520  -11.1570 O.2     9  ASP9       -0.2864
     20  CB        45.2920   13.1170  -10.7880 C.3     9  ASP9        0.1436
     21  CG        44.2560   14.1970  -11.1150 C.2     9  ASP9        0.3671
     22  OD1       44.3280   15.2890  -10.5160 O.co2   9  ASP9       -0.2456
     23  OD2       43.3810   13.9820  -11.9990 O.co2   9  ASP9       -0.2456
     24  N         49.9960    5.7540   -8.6520 N.3    41  GLY41      -0.1210
     25  CA        49.1040    6.6950   -8.0180 C.3    41  GLY41       0.1956
     26  C         48.7510    6.1850   -6.6400 C.2    41  GLY41       0.2612
     27  O         48.7250    4.9800   -6.4010 O.2    41  GLY41      -0.2717
     28  N         48.4730    7.1040   -5.7290 N.am   42  GLY42      -0.1942
     29  CA        47.8300    6.7420   -4.4760 C.3    42  GLY42       0.2014
     30  C         46.4280    6.1930   -4.6770 C.2    42  GLY42       0.2639
     31  O         45.9690    5.3520   -3.9160 O.2    42  GLY42      -0.2714
     32  N         45.7390    6.6550   -5.7100 N.am   43  SER43      -0.1949
     33  CA        44.3610    6.2340   -5.9140 C.3    43  SER43       0.1924
     34  C         44.3000    4.7640   -6.3030 C.2    43  SER43       0.2314
     35  O         45.2740    4.2090   -6.7870 O.2    43  SER43      -0.2863
     36  CB        43.6660    7.1210   -6.9540 C.3    43  SER43       0.2116
     37  OG        44.3580    7.1000   -8.1860 O.3    43  SER43      -0.2180
     38  N         39.9190    4.0800  -10.1360 N.3    47  LYS47      -0.1245
     39  CA        40.1560    5.4660  -10.4340 C.3    47  LYS47       0.1561
     40  C         41.2280    5.6260  -11.5080 C.2    47  LYS47       0.2260
     41  O         41.1440    6.4950  -12.3830 O.2    47  LYS47      -0.2867
     42  CB        40.5870    6.1780   -9.1560 C.3    47  LYS47       0.0271
     43  CG        40.8540    7.6860   -9.3080 C.3    47  LYS47       0.0035
     44  CD        39.6790    8.4430   -9.9980 C.3    47  LYS47       0.0206
     45  CE        39.8400    9.9730   -9.8910 C.3    47  LYS47       0.1093
     46  NZ        40.2720   10.4200   -8.5040 N.3    47  LYS47      -0.1314
     47  N         40.9620    0.8050    1.7120 N.3   119  ARG119     -0.1245
     48  CA        41.4520    0.1480    0.5160 C.3   119  ARG119      0.1563
     49  C         42.3800   -0.9670    0.9640 C.2   119  ARG119      0.2260
     50  O         42.4580   -1.2750    2.1680 O.2   119  ARG119     -0.2867
     51  CB        42.2050    1.1300   -0.3610 C.3   119  ARG119      0.0307
     52  CG        41.5300    2.4660   -0.4370 C.3   119  ARG119      0.0489
     53  CD        42.1030    3.3880   -1.5120 C.3   119  ARG119      0.2205
     54  NE        41.3010    4.6020   -1.5670 N.pl3 119  ARG119     -0.0865
     55  CZ        41.7170    5.7630   -2.0430 C.cat 119  ARG119      0.5346
     56  NH1       42.9450    5.9040   -2.5180 N.pl3 119  ARG119      0.1354
     57  NH2       40.8980    6.7990   -2.0420 N.pl3 119  ARG119      0.1354
     58  N         41.6800    6.1000    3.1940 N.3   124  ASN124     -0.1240
     59  CA        41.5480    7.4340    2.6130 C.3   124  ASN124      0.1653
     60  C         40.5050    8.0930    3.4740 C.2   124  ASN124      0.2266
     61  O         39.4340    7.5090    3.6690 O.2   124  ASN124     -0.2867
     62  CB        41.1170    7.3720    1.1490 C.3   124  ASN124      0.1155
     63  CG        40.9840    8.7500    0.5220 C.2   124  ASN124      0.2627
     64  OD1       39.9200    9.3600    0.5720 O.2   124  ASN124     -0.2716
     65  ND2       42.0590    9.2380   -0.0990 N.am  124  ASN124     -0.0877
     66  N         33.8960   11.5130    0.2230 N.3   130  ARG130     -0.1245
     67  CA        34.2250   11.3750   -1.1860 C.3   130  ARG130      0.1563
     68  C         32.9730   11.3470   -2.0250 C.2   130  ARG130      0.2260
     69  O         33.0560   11.4180   -3.2340 O.2   130  ARG130     -0.2867
     70  CB        34.9920   10.0780   -1.4660 C.3   130  ARG130      0.0307
     71  CG        36.1390    9.7250   -0.4930 C.3   130  ARG130      0.0489
     72  CD        36.9950    8.5900   -1.0470 C.3   130  ARG130      0.2205
     73  NE        37.3010    8.8610   -2.4480 N.pl3 130  ARG130     -0.0865
     74  CZ        38.2180    9.7250   -2.8680 C.cat 130  ARG130      0.5346
     75  NH1       38.9810   10.4030   -2.0020 N.pl3 130  ARG130      0.1354
     76  NH2       38.3850    9.9000   -4.1740 N.pl3 130  ARG130      0.1354
     77  N         33.4960   19.5350   -3.7370 N.3   137  ARG137     -0.1245
     78  CA        34.9490   19.3030   -3.6390 C.3   137  ARG137      0.1563
     79  C         35.7550   20.5990   -3.6800 C.2   137  ARG137      0.2260
     80  O         36.7510   20.7520   -2.9770 O.2   137  ARG137     -0.2867
     81  CB        35.4310   18.4030   -4.7860 C.3   137  ARG137      0.0307
     82  CG        35.0310   16.9380   -4.6410 C.3   137  ARG137      0.0489
     83  CD        35.4110   16.1260   -5.8710 C.3   137  ARG137      0.2205
     84  NE        36.8600   16.0810   -6.0800 N.pl3 137  ARG137     -0.0865
     85  CZ        37.6780   15.1450   -5.5920 C.cat 137  ARG137      0.5346
     86  NH1       37.2140   14.1160   -4.8840 N.pl3 137  ARG137      0.1354
     87  NH2       38.9800   15.2310   -5.8350 N.pl3 137  ARG137      0.1354
     88  N         47.4410   14.0980   -0.6720 N.3   171  GLY171     -0.1210
     89  CA        47.3370   14.3810   -2.1110 C.3   171  GLY171      0.1956
     90  C         45.8550   14.5060   -2.3810 C.2   171  GLY171      0.2612
     91  O         45.0420   13.9140   -1.6740 O.2   171  GLY171     -0.2717
     92  N         45.4730   15.2930   -3.3710 N.am  172  GLY172     -0.1942
     93  CA        44.0540   15.4640   -3.6770 C.3   172  GLY172      0.2014
     94  C         43.2890   16.5040   -2.8610 C.2   172  GLY172      0.2639
     95  O         43.6720   16.8400   -1.7370 O.2   172  GLY172     -0.2714
     96  N         42.1860   16.9730   -3.4560 N.am  173  GLN173     -0.1963
     97  CA        41.3200   18.0380   -2.9280 C.3   173  GLN173      0.1733
     98  C         40.6770   17.7870   -1.5680 C.2   173  GLN173      0.2616
     99  O         40.6320   18.6910   -0.7410 O.2   173  GLN173     -0.2715
    100  CB        40.1520   18.2830   -3.8880 C.3   173  GLN173      0.0408
    101  CG        40.4750   19.0660   -5.1310 C.3   173  GLN173      0.0908
    102  CD        39.2410   19.2730   -5.9990 C.2   173  GLN173      0.2608
    103  OE1       38.5850   18.3120   -6.3980 O.2   173  GLN173     -0.2717
    104  NE2       38.9170   20.5280   -6.2890 N.am  173  GLN173     -0.0878
    105  N         40.1380   16.5930   -1.3500 N.am  174  ILE174     -0.1963
    106  CA        39.1780   16.4220   -0.2600 C.3   174  ILE174      0.1727
    107  C         39.5360   15.3760    0.7780 C.2   174  ILE174      0.2616
    108  O         38.7290   15.0970    1.6810 O.2   174  ILE174     -0.2715
    109  CB        37.7830   16.0750   -0.8100 C.3   174  ILE174      0.0290
    110  CG1       37.8410   14.7950   -1.6280 C.3   174  ILE174      0.0022
    111  CG2       37.2540   17.2080   -1.6720 C.3   174  ILE174      0.0023
    112  CD1       36.5020   14.2050   -1.8220 C.3   174  ILE174      0.0001
    113  N         40.7220   14.7910    0.6570 N.am  175  SER175     -0.1950
    114  CA        41.0900   13.6870    1.5270 C.3   175  SER175      0.1924
    115  C         42.5440   13.7000    1.8800 C.2   175  SER175      0.2314
    116  O         43.3220   14.5170    1.4020 O.2   175  SER175     -0.2863
    117  CB        40.7760   12.3510    0.8420 C.3   175  SER175      0.2116
    118  OG        41.7630   12.0130   -0.1270 O.3   175  SER175     -0.2180
    119  N         45.5580   10.4240    2.6180 N.3   177  ASP177     -0.1239
    120  CA        45.8540    9.0120    2.6550 C.3   177  ASP177      0.1674
    121  C         46.5450    8.6820    3.9670 C.2   177  ASP177      0.2266
    122  O         47.3090    9.5070    4.5140 O.2   177  ASP177     -0.2867
    123  CB        46.7120    8.6340    1.4410 C.3   177  ASP177      0.1410
    124  CG        45.9840    8.8790    0.1330 C.2   177  ASP177      0.3668
    125  OD1       44.7520    8.7670    0.1050 O.co2 177  ASP177     -0.2456
    126  OD2       46.6150    9.1900   -0.8860 O.co2 177  ASP177     -0.2456
    127  N         54.7170    6.2070   -2.3340 N.3   185  LYS185     -0.1245
    128  CA        55.0200    5.7950   -3.7240 C.3   185  LYS185      0.1561
    129  C         56.3900    5.1020   -3.9680 C.2   185  LYS185      0.2260
    130  O         56.5520    4.3510   -4.9660 O.2   185  LYS185     -0.2867
    131  CB        54.8930    6.9840   -4.6610 C.3   185  LYS185      0.0271
    132  CG        53.4680    7.4050   -4.9130 C.3   185  LYS185      0.0035
    133  CD        53.4170    8.4600   -6.0280 C.3   185  LYS185      0.0206
    134  CE        52.0020    8.8120   -6.4490 C.3   185  LYS185      0.1093
    135  NZ        51.3190    9.6420   -5.3970 N.3   185  LYS185     -0.1314
    136  N         52.8830   14.1240   -2.3570 N.3   211  ASN211     -0.1240
    137  CA        52.9460   12.6640   -2.3570 C.3   211  ASN211      0.1653
    138  C         53.8460   12.0800   -3.4550 C.2   211  ASN211      0.2266
    139  O         53.9290   10.8440   -3.6290 O.2   211  ASN211     -0.2867
    140  CB        51.5390   12.0580   -2.3640 C.3   211  ASN211      0.1155
    141  CG        50.8470   12.1670   -3.6870 C.2   211  ASN211      0.2627
    142  OD1       51.4420   12.5560   -4.6830 O.2   211  ASN211     -0.2716
    143  ND2       49.5750   11.8040   -3.7110 N.am  211  ASN211     -0.0877
@<TRIPOS>BOND
     1    12    11    2
     2     4     3    2
     3    14    13    1
     4    11    10    1
     5    11    16   am
     6    10    13    1
     7    10     9    1
     8    15    13    1
     9     3     9   am
    10     3     2    1
    11    41    40    2
    12     1     2    1
    13    23    21   ar
    14    17    18    1
    15    17    16    1
    16    17    20    1
    17    18    19    2
    18     2     5    1
    19    40    39    1
    20    21    20    1
    21    21    22   ar
    22     5     6    1
    23    39    38    1
    24    39    42    1
    25    44    45    1
    26    44    43    1
    27    45    46    1
    28     6     7   ar
    29     6     8   ar
    30    43    42    1
    31    24    25    1
    32    37    36    1
    33    25    26    1
    34    36    33    1
    35    35    34    2
    36    26    27    2
    37    26    28   am
    38   134   133    1
    39   134   135    1
    40   103   102    2
    41    34    33    1
    42   104   102   am
    43    84    83    1
    44    84    85    2
    45   133   132    1
    46   102   101    1
    47    33    32    1
    48    83    82    1
    49    87    85    1
    50    28    29    1
    51    32    30   am
    52    85    86    1
    53   101   100    1
    54   130   129    2
    55   132   131    1
    56    81    82    1
    57    81    78    1
    58   142   141    2
    59    30    29    1
    60    30    31    2
    61   131   128    1
    62    76    74    1
    63   129   128    1
    64   100    97    1
    65    77    78    1
    66   128   127    1
    67   143   141   am
    68   141   140    1
    69    79    78    1
    70    79    80    2
    71    93    92    1
    72    93    94    1
    73   139   138    2
    74    96    97    1
    75    96    94   am
    76   138   137    1
    77    92    90   am
    78    69    68    2
    79    97    98    1
    80    74    73    2
    81    74    75    1
    82    94    95    2
    83    56    55    1
    84    73    72    1
    85    90    89    1
    86    90    91    2
    87   140   137    1
    88   137   136    1
    89    89    88    1
    90    55    57    1
    91    55    54    2
    92    68    67    1
    93   112   110    1
    94   111   109    1
    95   110   109    1
    96    98   105   am
    97    98    99    2
    98    54    53    1
    99    53    52    1
   100    70    67    1
   101    70    71    1
   102   105   106    1
   103    67    66    1
   104    72    71    1
   105   126   124   ar
   106   109   106    1
   107    52    51    1
   108    51    48    1
   109   106   107    1
   110   118   117    1
   111    65    63   am
   112   125   124   ar
   113   124   123    1
   114    48    49    1
   115    48    47    1
   116    63    64    2
   117    63    62    1
   118   113   107   am
   119   113   114    1
   120   107   108    2
   121   117   114    1
   122    49    50    2
   123    62    59    1
   124   116   115    2
   125   123   120    1
   126   114   115    1
   127    59    58    1
   128    59    60    1
   129   119   120    1
   130   120   121    1
   131    60    61    2
   132   121   122    2
