@<TRIPOS>MOLECULE
tmp/2i58B00.pdb
 198 193 0 0 0
SMALL
GASTEIGER

@<TRIPOS>ATOM
      1  N         24.8710  -11.2730   36.6580 N.3    10  GLN10      -0.1231
      2  CA        24.2010  -12.5690   36.4320 C.3    10  GLN10       0.1698
      3  C         24.7170  -13.2260   35.1560 C.2    10  GLN10       0.2592
      4  O         24.5010  -14.4080   34.8900 O.2    10  GLN10      -0.2718
      5  CB        22.6720  -12.4410   36.4590 C.3    10  GLN10       0.0381
      6  CG        22.1870  -11.9620   37.8130 C.3    10  GLN10       0.0905
      7  CD        20.7470  -12.3220   38.1090 C.2    10  GLN10       0.2608
      8  OE1       20.3810  -13.5060   38.1850 O.2    10  GLN10      -0.2717
      9  NE2       19.9040  -11.2960   38.2880 N.am   10  GLN10      -0.0878
     10  N         25.5010  -12.4680   34.4160 N.am   11  LYS11      -0.1966
     11  CA        25.7760  -12.7750   33.0320 C.3    11  LYS11       0.1728
     12  C         27.2220  -13.3040   32.9440 C.2    11  LYS11       0.2616
     13  O         28.1260  -12.5880   32.5760 O.2    11  LYS11      -0.2715
     14  CB        25.4990  -11.4690   32.2650 C.3    11  LYS11       0.0311
     15  CG        25.5880  -11.5180   30.7820 C.3    11  LYS11       0.0038
     16  CD        24.2680  -11.4540   30.0800 C.3    11  LYS11       0.0206
     17  CE        24.5100  -11.5690   28.5820 C.3    11  LYS11       0.1093
     18  NZ        25.1440  -12.8440   28.1430 N.3    11  LYS11      -0.1314
     19  N         27.3880  -14.5870   33.2950 N.am   12  LYS12      -0.1963
     20  CA        28.7040  -15.2730   33.4770 C.3    12  LYS12       0.1728
     21  C         29.5770  -15.4230   32.2440 C.2    12  LYS12       0.2616
     22  O         30.7890  -15.6600   32.3460 O.2    12  LYS12      -0.2715
     23  CB        28.4840  -16.7090   33.9860 C.3    12  LYS12       0.0311
     24  CG        27.8290  -16.8250   35.3570 C.3    12  LYS12       0.0038
     25  CD        27.6990  -18.3190   35.7980 C.3    12  LYS12       0.0206
     26  CE        27.0010  -18.4470   37.1800 C.3    12  LYS12       0.1093
     27  NZ        27.9210  -17.9630   38.3170 N.3    12  LYS12      -0.1314
     28  N         28.9150  -15.4050   31.0970 N.am   13  GLU13      -0.1977
     29  CA        29.5410  -15.4920   29.7760 C.3    13  GLU13       0.1602
     30  C         30.4360  -14.2830   29.4810 C.2    13  GLU13       0.2287
     31  O         31.3950  -14.3670   28.7600 O.2    13  GLU13      -0.2864
     32  CB        28.4300  -15.5590   28.7210 C.3    13  GLU13       0.0415
     33  CG        27.6930  -16.9020   28.6480 C.3    13  GLU13       0.1163
     34  CD        26.3210  -16.9910   29.3960 C.2    13  GLU13       0.3649
     35  OE1       25.9400  -16.1390   30.2580 O.co2  13  GLU13      -0.2457
     36  OE2       25.6390  -18.0030   29.1010 O.co2  13  GLU13      -0.2457
     37  N         23.2930  -17.4980   41.1030 N.3    42  ALA42      -0.1231
     38  CA        23.2880  -16.0740   41.3760 C.3    42  ALA42       0.1694
     39  C         21.9010  -15.5090   41.6300 C.2    42  ALA42       0.2592
     40  O         21.7860  -14.5580   42.3960 O.2    42  ALA42      -0.2718
     41  CB        23.9520  -15.3250   40.2560 C.3    42  ALA42       0.0304
     42  N         20.8570  -16.0800   41.0090 N.am   43  GLY43      -0.1957
     43  CA        19.4850  -15.6010   41.1810 C.3    43  GLY43       0.1869
     44  C         19.0310  -15.8070   42.6060 C.2    43  GLY43       0.2309
     45  O         18.3780  -14.9570   43.1880 O.2    43  GLY43      -0.2863
     46  N         17.0950   -8.8740   35.7690 N.3    62  TYR62      -0.1241
     47  CA        16.3430   -8.9990   34.5630 C.3    62  TYR62       0.1605
     48  C         14.9670   -8.3890   34.8370 C.2    62  TYR62       0.2264
     49  O         14.2720   -8.8570   35.7360 O.2    62  TYR62      -0.2867
     50  CB        16.2250  -10.4460   34.1670 C.3    62  TYR62       0.0534
     51  CG        17.5400  -11.0600   33.9520 C.ar   62  TYR62      -0.0201
     52  CD1       18.2200  -10.8670   32.7770 C.ar   62  TYR62      -0.0009
     53  CD2       18.1120  -11.8390   34.9170 C.ar   62  TYR62      -0.0009
     54  CE1       19.4820  -11.4310   32.5820 C.ar   62  TYR62       0.0417
     55  CE2       19.3620  -12.4230   34.7340 C.ar   62  TYR62       0.0417
     56  CZ        20.0560  -12.2070   33.5740 C.ar   62  TYR62       0.1957
     57  OH        21.3200  -12.7820   33.4110 O.3    62  TYR62      -0.2866
     58  N         11.8020   -8.2240   33.6340 N.3    64  GLN64      -0.1231
     59  CA        10.4620   -8.7820   33.5170 C.3    64  GLN64       0.1698
     60  C         10.0360   -9.5820   34.7630 C.2    64  GLN64       0.2592
     61  O          8.8630   -9.9570   34.9300 O.2    64  GLN64      -0.2718
     62  CB        10.4330   -9.7140   32.3250 C.3    64  GLN64       0.0381
     63  CG        10.9800  -11.0900   32.6430 C.3    64  GLN64       0.0905
     64  CD        12.4580  -11.1400   32.5620 C.2    64  GLN64       0.2608
     65  OE1       13.1220  -10.1610   32.1870 O.2    64  GLN64      -0.2717
     66  NE2       13.0040  -12.2890   32.9150 N.am   64  GLN64      -0.0878
     67  N         10.9950   -9.8750   35.6200 N.am   65  SER65      -0.1952
     68  CA        10.7840  -10.7840   36.7310 C.3    65  SER65       0.1924
     69  C          9.8010  -10.2480   37.7800 C.2    65  SER65       0.2314
     70  O          9.7150   -9.0540   37.9880 O.2    65  SER65      -0.2863
     71  CB        12.1350  -11.0550   37.3890 C.3    65  SER65       0.2116
     72  OG        12.7380   -9.8370   37.7250 O.3    65  SER65      -0.2180
     73  N         17.6220  -10.1550   25.2630 N.3   111  ASN111     -0.1240
     74  CA        17.9510  -11.4940   24.7720 C.3   111  ASN111      0.1653
     75  C         16.9070  -11.9810   23.8120 C.2   111  ASN111      0.2266
     76  O         15.8050  -11.3880   23.6890 O.2   111  ASN111     -0.2867
     77  CB        18.1440  -12.5280   25.8790 C.3   111  ASN111      0.1155
     78  CG        17.2930  -12.2810   27.0590 C.2   111  ASN111      0.2627
     79  OD1       16.0760  -12.3010   26.9560 O.2   111  ASN111     -0.2716
     80  ND2       17.9200  -12.0040   28.1960 N.am  111  ASN111     -0.0877
     81  N         15.7590  -16.0210   21.5700 N.3   113  TYR113     -0.1241
     82  CA        15.8630  -17.4830   21.6820 C.3   113  TYR113      0.1605
     83  C         15.5320  -18.1470   20.3750 C.2   113  TYR113      0.2264
     84  O         14.4850  -17.8610   19.8360 O.2   113  TYR113     -0.2867
     85  CB        14.9020  -17.9740   22.7400 C.3   113  TYR113      0.0534
     86  CG        15.1100  -19.3870   23.0780 C.ar  113  TYR113     -0.0201
     87  CD1       15.8120  -19.7490   24.1840 C.ar  113  TYR113     -0.0009
     88  CD2       14.5940  -20.3800   22.2810 C.ar  113  TYR113     -0.0009
     89  CE1       15.9750  -21.0830   24.5050 C.ar  113  TYR113      0.0417
     90  CE2       14.7410  -21.7310   22.5960 C.ar  113  TYR113      0.0417
     91  CZ        15.4420  -22.0670   23.6830 C.ar  113  TYR113      0.1957
     92  OH        15.6230  -23.3870   23.9380 O.3   113  TYR113     -0.2866
     93  N         17.0810  -25.2660   32.3100 N.3   159  TRP159     -0.1241
     94  CA        16.7660  -23.8760   31.9160 C.3   159  TRP159      0.1605
     95  C         17.1300  -23.4850   30.4930 C.2   159  TRP159      0.2264
     96  O         16.6230  -22.4580   29.9460 O.2   159  TRP159     -0.2867
     97  CB        17.4650  -22.8820   32.8230 C.3   159  TRP159      0.0550
     98  CG        18.9600  -22.9250   32.6880 C.ar  159  TRP159      0.0003
     99  CD1       19.8330  -23.6740   33.4320 C.ar  159  TRP159      0.0946
    100  CD2       19.7630  -22.1980   31.7730 C.ar  159  TRP159      0.0152
    101  NE1       21.1250  -23.4540   33.0410 N.ar  159  TRP159     -0.2442
    102  CE2       21.1130  -22.5670   32.0120 C.ar  159  TRP159      0.0810
    103  CE3       19.4820  -21.2720   30.7770 C.ar  159  TRP159      0.0012
    104  CZ2       22.1660  -22.0410   31.2980 C.ar  159  TRP159      0.0191
    105  CZ3       20.5190  -20.7530   30.0620 C.ar  159  TRP159      0.0001
    106  CH2       21.8580  -21.1370   30.3230 C.ar  159  TRP159      0.0015
    107  N         13.8490  -23.3240   28.2990 N.3   162  ASN162     -0.1225
    108  CA        12.7320  -22.5400   28.7220 C.3   162  ASN162      0.1785
    109  C         12.1230  -21.8840   27.4980 C.2   162  ASN162      0.2597
    110  O         10.9380  -21.9920   27.2330 O.2   162  ASN162     -0.2718
    111  CB        13.2280  -21.5120   29.7090 C.3   162  ASN162      0.1169
    112  CG        12.1060  -20.8730   30.5270 C.2   162  ASN162      0.2627
    113  OD1       10.9600  -21.3610   30.6070 O.2   162  ASN162     -0.2716
    114  ND2       12.4500  -19.7370   31.1500 N.am  162  ASN162     -0.0877
    115  N         12.9560  -21.2210   26.7160 N.am  163  GLY163     -0.1957
    116  CA        12.5060  -20.5970   25.4600 C.3   163  GLY163      0.1869
    117  C         11.8470  -21.5710   24.4920 C.2   163  GLY163      0.2309
    118  O         10.8370  -21.2350   23.8620 O.2   163  GLY163     -0.2863
    119  N         25.3060  -27.3050   30.0350 N.3   223  TYR223     -0.1241
    120  CA        25.3890  -26.1810   29.0860 C.3   223  TYR223      0.1605
    121  C         26.7480  -26.0930   28.4590 C.2   223  TYR223      0.2264
    122  O         26.8240  -26.0140   27.2550 O.2   223  TYR223     -0.2867
    123  CB        25.0780  -24.8890   29.8190 C.3   223  TYR223      0.0534
    124  CG        25.1400  -23.5570   29.0850 C.ar  223  TYR223     -0.0201
    125  CD1       24.2750  -23.2680   28.0490 C.ar  223  TYR223     -0.0009
    126  CD2       25.9940  -22.5370   29.5290 C.ar  223  TYR223     -0.0009
    127  CE1       24.2980  -22.0300   27.4060 C.ar  223  TYR223      0.0417
    128  CE2       26.0260  -21.2860   28.9010 C.ar  223  TYR223      0.0417
    129  CZ        25.1600  -21.0320   27.8330 C.ar  223  TYR223      0.1957
    130  OH        25.1740  -19.7900   27.1830 O.3   223  TYR223     -0.2866
    131  N         22.3040  -15.3110   24.2880 N.3   243  TRP243     -0.1241
    132  CA        23.4000  -15.2790   25.2510 C.3   243  TRP243      0.1605
    133  C         24.5090  -16.3280   25.0120 C.2   243  TRP243      0.2264
    134  O         25.6540  -16.1000   25.4190 O.2   243  TRP243     -0.2867
    135  CB        22.8800  -15.3990   26.6680 C.3   243  TRP243      0.0550
    136  CG        22.0660  -16.6030   26.8820 C.ar  243  TRP243      0.0003
    137  CD1       22.5090  -17.8740   26.9710 C.ar  243  TRP243      0.0946
    138  CD2       20.6400  -16.6630   27.0270 C.ar  243  TRP243      0.0152
    139  NE1       21.4560  -18.7340   27.1700 N.ar  243  TRP243     -0.2442
    140  CE2       20.2980  -18.0140   27.2170 C.ar  243  TRP243      0.0810
    141  CE3       19.6190  -15.6950   27.0050 C.ar  243  TRP243      0.0012
    142  CZ2       19.0220  -18.4390   27.4100 C.ar  243  TRP243      0.0191
    143  CZ3       18.3310  -16.1050   27.1770 C.ar  243  TRP243      0.0001
    144  CH2       18.0380  -17.4900   27.3800 C.ar  243  TRP243      0.0015
    145  N         15.0840   -7.7780   28.6610 N.3   276  GLY276     -0.1210
    146  CA        16.3800   -7.1510   28.9710 C.3   276  GLY276      0.1956
    147  C         17.4100   -8.1440   29.4230 C.2   276  GLY276      0.2611
    148  O         17.0970   -8.9880   30.2350 O.2   276  GLY276     -0.2717
    149  N         18.6270   -8.0680   28.8980 N.am  277  ASP277     -0.1973
    150  CA        19.6660   -9.0500   29.2540 C.3   277  ASP277      0.1709
    151  C         20.6600   -8.3760   30.1450 C.2   277  ASP277      0.2293
    152  O         20.4460   -8.3640   31.3720 O.2   277  ASP277     -0.2864
    153  CB        20.3370   -9.6590   28.0230 C.3   277  ASP277      0.1436
    154  CG        20.9600  -11.0300   28.3110 C.2   277  ASP277      0.3671
    155  OD1       20.5170  -11.6910   29.2780 O.co2 277  ASP277     -0.2456
    156  OD2       21.8570  -11.4490   27.5460 O.co2 277  ASP277     -0.2456
    157  N          9.2670  -13.0160   28.0760 N.3   345  TRP345     -0.1241
    158  CA         9.3170  -14.2490   28.7910 C.3   345  TRP345      0.1605
    159  C          7.9690  -14.4110   29.4390 C.2   345  TRP345      0.2264
    160  O          7.3760  -13.4200   29.9410 O.2   345  TRP345     -0.2867
    161  CB        10.3760  -14.1650   29.8620 C.3   345  TRP345      0.0550
    162  CG        11.7180  -14.2650   29.3420 C.ar  345  TRP345      0.0003
    163  CD1       12.6440  -13.2890   29.3060 C.ar  345  TRP345      0.0946
    164  CD2       12.3260  -15.4240   28.7890 C.ar  345  TRP345      0.0152
    165  NE1       13.7950  -13.7510   28.7510 N.ar  345  TRP345     -0.2442
    166  CE2       13.6350  -15.0660   28.4300 C.ar  345  TRP345      0.0810
    167  CE3       11.8850  -16.7230   28.5470 C.ar  345  TRP345      0.0012
    168  CZ2       14.5060  -15.9440   27.8440 C.ar  345  TRP345      0.0191
    169  CZ3       12.7420  -17.5900   27.9540 C.ar  345  TRP345      0.0001
    170  CH2       14.0490  -17.2080   27.6130 C.ar  345  TRP345      0.0015
    171  N          7.1630  -15.9810   32.0900 N.3   347  GLN347     -0.1245
    172  CA         7.1920  -15.9580   33.5810 C.3   347  GLN347      0.1566
    173  C          7.1470  -14.5680   34.2390 C.2   347  GLN347      0.2260
    174  O          7.2680  -14.4450   35.4590 O.2   347  GLN347     -0.2867
    175  CB         8.3370  -16.8200   34.1410 C.3   347  GLN347      0.0367
    176  CG         9.6990  -16.2100   34.2290 C.3   347  GLN347      0.0905
    177  CD        10.5680  -16.3170   32.9870 C.2   347  GLN347      0.2608
    178  OE1       10.2190  -16.9470   31.9990 O.2   347  GLN347     -0.2717
    179  NE2       11.7310  -15.6860   33.0550 N.am  347  GLN347     -0.0878
    180  N          9.7300  -19.9260   38.1660 N.3   353  GLU353     -0.1245
    181  CA         9.9010  -20.6350   36.8820 C.3   353  GLU353      0.1567
    182  C         10.5570  -22.0370   36.9240 C.2   353  GLU353      0.2260
    183  O         10.4200  -22.7900   35.9580 O.2   353  GLU353     -0.2867
    184  CB        10.6030  -19.7460   35.8420 C.3   353  GLU353      0.0388
    185  CG        12.0230  -19.3180   36.2130 C.3   353  GLU353      0.1160
    186  CD        12.6830  -18.4020   35.1650 C.2   353  GLU353      0.3649
    187  OE1       12.4700  -18.6140   33.9600 O.co2 353  GLU353     -0.2457
    188  OE2       13.4420  -17.4830   35.5520 O.co2 353  GLU353     -0.2457
    189  N         10.8900  -25.3630   33.7390 N.3   357  HIS357     -0.1241
    190  CA        12.0340  -26.0330   33.1330 C.3   357  HIS357      0.1621
    191  C         11.9600  -27.5160   33.4340 C.2   357  HIS357      0.2264
    192  O         12.1160  -28.3340   32.5290 O.2   357  HIS357     -0.2867
    193  CB        13.3810  -25.5470   33.6460 C.3   357  HIS357      0.0745
    194  CG        13.4920  -24.0760   33.7610 C.ar  357  HIS357      0.0817
    195  ND1       14.1390  -23.4700   34.8130 N.ar  357  HIS357     -0.2268
    196  CD2       13.0190  -23.0810   32.9740 C.ar  357  HIS357      0.1154
    197  CE1       14.0700  -22.1610   34.6620 C.ar  357  HIS357      0.1986
    198  NE2       13.3970  -21.9010   33.5540 N.ar  357  HIS357     -0.2212
@<TRIPOS>BOND
     1    84    83    2
     2    83    82    1
     3    81    82    1
     4    82    85    1
     5    88    90   ar
     6    88    86   ar
     7    90    91   ar
     8    85    86    1
     9    86    87   ar
    10    91    92    1
    11    91    89   ar
    12    76    75    2
    13    75    74    1
    14   118   117    2
    15    87    89   ar
    16   131   132    1
    17   117   116    1
    18    74    73    1
    19    74    77    1
    20   133   132    1
    21   133   134    2
    22   132   135    1
    23   116   115    1
    24    77    78    1
    25   135   136    1
    26   115   109   am
    27   136   137   ar
    28   136   138   ar
    29    79    78    2
    30   137   139   ar
    31   141   138   ar
    32   141   143   ar
    33   138   140   ar
    34    78    80   am
    35   139   140   ar
    36   143   144   ar
    37   130   129    1
    38   140   142   ar
    39   110   109    2
    40   122   121    2
    41   144   142   ar
    42   127   129   ar
    43   127   125   ar
    44   109   108    1
    45   156   154   ar
    46   170   168   ar
    47   170   169   ar
    48   129   128   ar
    49   168   166   ar
    50   169   167   ar
    51   153   154    1
    52   153   150    1
    53   125   124   ar
    54   157   158    1
    55    18    17    1
    56   107   108    1
    57   154   155   ar
    58   166   165   ar
    59   166   164   ar
    60   121   120    1
    61   167   164   ar
    62    17    16    1
    63    33    32    1
    64    33    34    1
    65   145   146    1
    66    32    29    1
    67   108   111    1
    68   165   163   ar
    69    31    30    2
    70   164   162   ar
    71   158   159    1
    72   158   161    1
    73   149   150    1
    74   149   147   am
    75   128   126   ar
    76   146   147    1
    77   124   126   ar
    78   124   123    1
    79   120   123    1
    80   120   119    1
    81    36    34   ar
    82   150   151    1
    83   163   162   ar
    84   162   161    1
    85    34    35   ar
    86   147   148    2
    87   159   160    2
    88    30    29    1
    89   111   112    1
    90    29    28    1
    91    96    95    2
    92   105   106   ar
    93   105   103   ar
    94    16    15    1
    95   151   152    2
    96   106   104   ar
    97    95    94    1
    98   112   113    2
    99   112   114   am
   100   103   100   ar
   101    15    14    1
   102    28    21   am
   103   104   102   ar
   104   100   102   ar
   105   100    98   ar
   106    94    93    1
   107    94    97    1
   108   178   177    2
   109   102   101   ar
   110   171   172    1
   111    65    64    2
   112    21    22    2
   113    21    20    1
   114    14    11    1
   115    62    63    1
   116    62    59    1
   117   192   191    2
   118    64    63    1
   119    64    66   am
   120    13    12    2
   121    54    52   ar
   122    54    56   ar
   123    98    97    1
   124    98    99   ar
   125    52    51   ar
   126    12    11    1
   127    12    19   am
   128   196   198   ar
   129   196   194   ar
   130   177   179   am
   131   177   176    1
   132    11    10    1
   133   101    99   ar
   134   190   191    1
   135   190   193    1
   136   190   189    1
   137    19    20    1
   138    57    56    1
   139    20    23    1
   140    59    58    1
   141    59    60    1
   142   198   197   ar
   143    56    55   ar
   144   172   175    1
   145   172   173    1
   146   193   194    1
   147   194   195   ar
   148    51    50    1
   149    51    53   ar
   150   187   186   ar
   151    23    24    1
   152   175   176    1
   153    50    47    1
   154   173   174    2
   155    10     3   am
   156    47    48    1
   157    47    46    1
   158   197   195   ar
   159    55    53   ar
   160    60    61    2
   161    60    67   am
   162    48    49    2
   163     4     3    2
   164     3     2    1
   165   186   188   ar
   166   186   185    1
   167    24    25    1
   168    67    68    1
   169    25    26    1
   170   184   185    1
   171   184   181    1
   172   183   182    2
   173     2     5    1
   174     2     1    1
   175     5     6    1
   176    68    71    1
   177    68    69    1
   178   181   182    1
   179   181   180    1
   180    26    27    1
   181    71    72    1
   182    69    70    2
   183     6     7    1
   184     7     8    2
   185     7     9   am
   186    41    38    1
   187    42    43    1
   188    42    39   am
   189    37    38    1
   190    43    44    1
   191    38    39    1
   192    39    40    2
   193    44    45    2
