@<TRIPOS>MOLECULE
tmp/2i5bA00.pdb
 167 154 0 0 0
SMALL
GASTEIGER

@<TRIPOS>ATOM
      1  N         20.9940   -2.0210   -3.0800 N.3   105  ASP105     -0.1239
      2  CA        21.9850   -2.9280   -3.6380 C.3   105  ASP105      0.1674
      3  C         21.2650   -4.2000   -4.0640 C.2   105  ASP105      0.2266
      4  O         20.8560   -4.9980   -3.2220 O.2   105  ASP105     -0.2867
      5  CB        23.0840   -3.2190   -2.6280 C.3   105  ASP105      0.1410
      6  CG        24.3440   -3.8100   -3.2650 C.2   105  ASP105      0.3668
      7  OD1       24.3410   -4.1830   -4.4580 O.co2 105  ASP105     -0.2456
      8  OD2       25.3620   -3.9180   -2.5540 O.co2 105  ASP105     -0.2456
      9  N         26.1490   -4.8530   -9.8330 N.3   139  ASN139     -0.1240
     10  CA        27.3780   -5.2280  -10.5140 C.3   139  ASN139      0.1653
     11  C         27.0290   -5.7770  -11.8800 C.2   139  ASN139      0.2266
     12  O         25.8520   -5.8080  -12.2450 O.2   139  ASN139     -0.2867
     13  CB        28.1850   -6.2450   -9.7040 C.3   139  ASN139      0.1155
     14  CG        27.3720   -7.4500   -9.2970 C.2   139  ASN139      0.2627
     15  OD1       26.3720   -7.7950   -9.9320 O.2   139  ASN139     -0.2716
     16  ND2       27.7990   -8.1000   -8.2260 N.am  139  ASN139     -0.0877
     17  N         24.2020   -8.4180  -11.9110 N.3   142  GLU142     -0.1245
     18  CA        22.9730   -7.7790  -11.4210 C.3   142  GLU142      0.1567
     19  C         22.4230   -6.7620  -12.4050 C.2   142  GLU142      0.2260
     20  O         21.2090   -6.6660  -12.6020 O.2   142  GLU142     -0.2867
     21  CB        23.2580   -7.0740  -10.1060 C.3   142  GLU142      0.0388
     22  CG        23.2150   -7.9700   -8.9010 C.3   142  GLU142      0.1160
     23  CD        24.0840   -7.4910   -7.7530 C.2   142  GLU142      0.3649
     24  OE1       24.3990   -6.2730   -7.6460 O.co2 142  GLU142     -0.2457
     25  OE2       24.4580   -8.3600   -6.9440 O.co2 142  GLU142     -0.2457
     26  N         28.6750   -1.2970  -11.0260 N.3   176  THR176     -0.1203
     27  CA        30.0140   -1.6510  -10.5570 C.3   176  THR176      0.1994
     28  C         30.6420   -2.7120  -11.4560 C.2   176  THR176      0.2618
     29  O         29.9980   -3.6800  -11.8260 O.2   176  THR176     -0.2717
     30  CB        30.0300   -2.0620   -9.0420 C.3   176  THR176      0.1784
     31  OG1       29.3430   -3.3070   -8.8480 O.3   176  THR176     -0.2211
     32  CG2       29.3720   -0.9790   -8.1550 C.3   176  THR176      0.0376
     33  N         31.8980   -2.5060  -11.8260 N.am  177  GLY177     -0.1942
     34  CA        32.6090   -3.4200  -12.7150 C.3   177  GLY177      0.2014
     35  C         33.8500   -4.0040  -12.0760 C.2   177  GLY177      0.2639
     36  O         33.9690   -5.2240  -11.9370 O.2   177  GLY177     -0.2714
     37  N         34.7840   -3.1260  -11.6920 N.am  178  GLY178     -0.1939
     38  CA        36.0090   -3.5110  -10.9780 C.3   178  GLY178      0.2014
     39  C         36.6750   -4.7540  -11.5360 C.2   178  GLY178      0.2639
     40  O         36.8120   -4.8970  -12.7600 O.2   178  GLY178     -0.2714
     41  N         37.0600   -5.6530  -10.6280 N.am  179  GLY179     -0.1939
     42  CA        37.8220   -6.8660  -10.9490 C.3   179  GLY179      0.2014
     43  C         37.2160   -7.8140  -11.9790 C.2   179  GLY179      0.2638
     44  O         37.9320   -8.5820  -12.6300 O.2   179  GLY179     -0.2714
     45  N         35.8970   -7.7680  -12.1370 N.am  180  LYS180     -0.1977
     46  CA        35.2040   -8.6620  -13.0720 C.3   180  LYS180      0.1596
     47  C         35.1140   -8.0950  -14.4970 C.2   180  LYS180      0.2287
     48  O         34.6140   -8.7570  -15.4060 O.2   180  LYS180     -0.2864
     49  CB        33.8120   -9.0370  -12.5430 C.3   180  LYS180      0.0298
     50  CG        33.8180   -9.7990  -11.2260 C.3   180  LYS180      0.0038
     51  CD        32.4040  -10.2210  -10.8410 C.3   180  LYS180      0.0206
     52  CE        32.1960  -10.2250   -9.3180 C.3   180  LYS180      0.1093
     53  NZ        32.1310   -8.8470   -8.7390 N.3   180  LYS180     -0.1314
     54  N         40.0370   -0.1320  -12.3890 N.3   186  ALA186     -0.1245
     55  CA        38.8280   -0.5880  -11.7000 C.3   186  ALA186      0.1562
     56  C         37.7360    0.4290  -11.9490 C.2   186  ALA186      0.2260
     57  O         37.7020    1.4940  -11.3200 O.2   186  ALA186     -0.2867
     58  CB        39.0840   -0.7490  -10.2200 C.3   186  ALA186      0.0290
     59  N         33.7580    1.8810  -12.5780 N.3   188  ASP188     -0.1239
     60  CA        32.3300    1.8430  -12.3830 C.3   188  ASP188      0.1674
     61  C         31.7070    2.9780  -13.2060 C.2   188  ASP188      0.2266
     62  O         32.3540    3.9840  -13.5040 O.2   188  ASP188     -0.2867
     63  CB        31.9710    2.0070  -10.9010 C.3   188  ASP188      0.1410
     64  CG        32.7180    1.0360   -9.9890 C.2   188  ASP188      0.3668
     65  OD1       32.7580   -0.1810  -10.2650 O.co2 188  ASP188     -0.2456
     66  OD2       33.2600    1.4960   -8.9610 O.co2 188  ASP188     -0.2456
     67  N         39.6210    3.8620  -10.5350 N.3   201  SER201     -0.1202
     68  CA        40.5820    3.7060   -9.4650 C.3   201  SER201      0.2020
     69  C         41.6120    2.6880   -9.9140 C.2   201  SER201      0.2619
     70  O         41.4180    1.9850  -10.9050 O.2   201  SER201     -0.2717
     71  CB        39.9080    3.2360   -8.1790 C.3   201  SER201      0.2103
     72  OG        39.2810    4.3130   -7.5130 O.3   201  SER201     -0.2182
     73  N         42.7280    2.6360   -9.1940 N.am  202  GLU202     -0.1965
     74  CA        43.7160    1.5880   -9.3750 C.3   202  GLU202      0.1733
     75  C         43.0300    0.2220   -9.2960 C.2   202  GLU202      0.2616
     76  O         42.1780    0.0000   -8.4330 O.2   202  GLU202     -0.2715
     77  CB        44.7740    1.7080   -8.2800 C.3   202  GLU202      0.0429
     78  CG        45.9300    0.7130   -8.3950 C.3   202  GLU202      0.1163
     79  CD        46.8330    0.7000   -7.1560 C.2   202  GLU202      0.3649
     80  OE1       46.4590    1.2700   -6.1060 O.co2 202  GLU202     -0.2457
     81  OE2       47.9270    0.1080   -7.2310 O.co2 202  GLU202     -0.2457
     82  N         43.3660   -0.6750  -10.2210 N.am  203  MET203     -0.1963
     83  CA        43.0030   -2.0950  -10.1010 C.3   203  MET203      0.1736
     84  C         43.9310   -2.7400   -9.1230 C.2   203  MET203      0.2616
     85  O         45.1520   -2.6710   -9.2880 O.2   203  MET203     -0.2715
     86  CB        43.2000   -2.8270  -11.4130 C.3   203  MET203      0.0427
     87  CG        41.9400   -3.0640  -12.1940 C.3   203  MET203      0.0599
     88  SD        40.9370   -4.5010  -11.6860 S.3   203  MET203     -0.1393
     89  CE        39.9800   -4.7100  -13.1750 C.3   203  MET203      0.0692
     90  N         43.3770   -3.3630   -8.0970 N.am  204  ILE204     -0.1977
     91  CA        44.2250   -4.0870   -7.1740 C.3   204  ILE204      0.1596
     92  C         44.2000   -5.5310   -7.6130 C.2   204  ILE204      0.2287
     93  O         43.1290   -6.1220   -7.7610 O.2   204  ILE204     -0.2864
     94  CB        43.8240   -3.8860   -5.6930 C.3   204  ILE204      0.0276
     95  CG1       44.2740   -2.4980   -5.2160 C.3   204  ILE204      0.0022
     96  CG2       44.4950   -4.9130   -4.8010 C.3   204  ILE204      0.0022
     97  CD1       43.2870   -1.3870   -5.4350 C.3   204  ILE204      0.0001
     98  N         44.0810   -8.8170   -6.7920 N.3   206  THR206     -0.1218
     99  CA        43.7400   -9.5800   -5.5950 C.3   206  THR206      0.1862
    100  C         42.4300  -10.3140   -5.7620 C.2   206  THR206      0.2287
    101  O         41.5000   -9.7990   -6.3590 O.2   206  THR206     -0.2866
    102  CB        43.6690   -8.6720   -4.3330 C.3   206  THR206      0.1770
    103  OG1       43.6880   -9.4950   -3.1610 O.3   206  THR206     -0.2211
    104  CG2       42.4120   -7.8020   -4.3190 C.3   206  THR206      0.0375
    105  N         38.0520   -9.9100   -2.5710 N.3   209  THR209     -0.1218
    106  CA        37.0690   -8.8440   -2.7040 C.3   209  THR209      0.1862
    107  C         35.6930   -9.2520   -2.2050 C.2   209  THR209      0.2287
    108  O         34.6880   -8.6750   -2.6200 O.2   209  THR209     -0.2866
    109  CB        36.9420   -8.3120   -4.1470 C.3   209  THR209      0.1770
    110  OG1       36.5630   -9.3770   -5.0180 O.3   209  THR209     -0.2211
    111  CG2       38.2550   -7.6810   -4.6340 C.3   209  THR209      0.0375
    112  N         32.5230   -9.1870   -0.1650 N.3   211  GLY211     -0.1210
    113  CA        31.7810   -8.1330    0.5030 C.3   211  GLY211      0.1956
    114  C         32.0820   -6.7440   -0.0240 C.2   211  GLY211      0.2612
    115  O         31.6780   -5.7440    0.5770 O.2   211  GLY211     -0.2717
    116  N         32.7850   -6.6710   -1.1500 N.am  212  ALA212     -0.1965
    117  CA        33.1100   -5.3750   -1.7360 C.3   212  ALA212      0.1728
    118  C         31.8460   -4.5870   -2.0650 C.2   212  ALA212      0.2616
    119  O         31.6990   -3.4280   -1.6620 O.2   212  ALA212     -0.2715
    120  CB        33.9940   -5.5330   -2.9760 C.3   212  ALA212      0.0334
    121  N         30.9270   -5.2340   -2.7750 N.am  213  GLY213     -0.1955
    122  CA        29.6850   -4.5980   -3.1960 C.3   213  GLY213      0.1869
    123  C         28.8220   -4.1780   -2.0310 C.2   213  GLY213      0.2309
    124  O         28.1520   -3.1480   -2.1050 O.2   213  GLY213     -0.2863
    125  N         30.7220   -1.0880   -0.6220 N.3   216  PHE216     -0.1241
    126  CA        30.5120    0.0790   -1.4820 C.3   216  PHE216      0.1605
    127  C         29.1730    0.7430   -1.1810 C.2   216  PHE216      0.2264
    128  O         29.1330    1.9160   -0.8090 O.2   216  PHE216     -0.2867
    129  CB        30.6170   -0.2880   -2.9640 C.3   216  PHE216      0.0534
    130  CG        30.3780    0.8600   -3.8780 C.ar  216  PHE216     -0.0203
    131  CD1       31.3130    1.9110   -3.9780 C.ar  216  PHE216     -0.0042
    132  CD2       29.2180    0.9160   -4.6480 C.ar  216  PHE216     -0.0042
    133  CE1       31.0780    2.9980   -4.8480 C.ar  216  PHE216     -0.0003
    134  CE2       28.9760    1.9900   -5.5160 C.ar  216  PHE216     -0.0003
    135  CZ        29.8960    3.0330   -5.6160 C.ar  216  PHE216     -0.0000
    136  N         33.6460    5.3080   -3.5190 N.3   238  LYS238     -0.1245
    137  CA        34.6320    4.7620   -4.4430 C.3   238  LYS238      0.1561
    138  C         36.0270    4.7730   -3.8080 C.2   238  LYS238      0.2260
    139  O         36.7910    3.8120   -3.9490 O.2   238  LYS238     -0.2867
    140  CB        34.6160    5.5410   -5.7520 C.3   238  LYS238      0.0271
    141  CG        35.6010    5.0520   -6.8020 C.3   238  LYS238      0.0035
    142  CD        35.2880    3.6550   -7.3260 C.3   238  LYS238      0.0206
    143  CE        36.2550    3.2660   -8.4350 C.3   238  LYS238      0.1093
    144  NZ        36.1100    1.8800   -8.9290 N.3   238  LYS238     -0.1314
    145  N         36.2090    1.7080   -0.7810 N.3   241  ILE241     -0.1231
    146  CA        36.5190    0.3110   -1.1130 C.3   241  ILE241      0.1692
    147  C         37.8290    0.1570   -1.8280 C.2   241  ILE241      0.2592
    148  O         38.4680   -0.8890   -1.7050 O.2   241  ILE241     -0.2718
    149  CB        35.4750   -0.4590   -1.9710 C.3   241  ILE241      0.0266
    150  CG1       34.4940    0.4880   -2.6320 C.3   241  ILE241      0.0019
    151  CG2       34.8130   -1.5840   -1.1660 C.3   241  ILE241      0.0020
    152  CD1       35.0170    1.0330   -3.9160 C.3   241  ILE241      0.0001
    153  N         38.2300    1.1680   -2.5900 N.am  242  THR242     -0.1953
    154  CA        39.5330    1.1140   -3.2220 C.3   242  THR242      0.1897
    155  C         40.5660    0.8480   -2.1330 C.2   242  THR242      0.2313
    156  O         41.3260   -0.1380   -2.2140 O.2   242  THR242     -0.2863
    157  CB        39.8530    2.3920   -4.0070 C.3   242  THR242      0.1794
    158  OG1       38.8430    2.6170   -5.0050 O.3   242  THR242     -0.2208
    159  CG2       41.2210    2.2600   -4.6850 C.3   242  THR242      0.0378
    160  N         39.9610   -2.6790   -0.4310 N.3   245  ILE245     -0.1245
    161  CA        40.4370   -3.7670   -1.2830 C.3   245  ILE245      0.1561
    162  C         41.9760   -3.7960   -1.3540 C.2   245  ILE245      0.2260
    163  O         42.5980   -4.8670   -1.3170 O.2   245  ILE245     -0.2867
    164  CB        39.8340   -3.6740   -2.7110 C.3   245  ILE245      0.0252
    165  CG1       38.3350   -4.0000   -2.6730 C.3   245  ILE245      0.0019
    166  CG2       40.5730   -4.6030   -3.6820 C.3   245  ILE245      0.0019
    167  CD1       37.5460   -3.4080   -3.8100 C.3   245  ILE245      0.0001
@<TRIPOS>BOND
     1    48    47    2
     2    47    46    1
     3    62    61    2
     4    61    60    1
     5    89    88    1
     6    46    49    1
     7    46    45    1
     8    40    39    2
     9    34    35    1
    10    34    33    1
    11    44    43    2
    12    20    19    2
    13    59    60    1
    14    49    50    1
    15    19    18    1
    16    54    55    1
    17    60    63    1
    18    12    11    2
    19    87    88    1
    20    87    86    1
    21    45    43   am
    22    35    36    2
    23    35    37   am
    24    43    42    1
    25    56    55    1
    26    56    57    2
    27    17    18    1
    28    11    10    1
    29    29    28    2
    30    33    28   am
    31    55    58    1
    32    37    38    1
    33    39    38    1
    34    39    41   am
    35    28    27    1
    36    18    21    1
    37    86    83    1
    38    50    51    1
    39    26    27    1
    40    42    41    1
    41    70    69    2
    42    63    64    1
    43    51    52    1
    44    27    30    1
    45    67    68    1
    46    10     9    1
    47    10    13    1
    48    65    64   ar
    49    82    83    1
    50    82    75   am
    51    21    22    1
    52    83    84    1
    53    64    66   ar
    54    15    14    2
    55    69    68    1
    56    69    73   am
    57    13    14    1
    58    68    71    1
    59    74    75    1
    60    74    73    1
    61    74    77    1
    62    52    53    1
    63    14    16   am
    64    75    76    2
    65    85    84    2
    66    84    90   am
    67    30    31    1
    68    30    32    1
    69   144   143    1
    70    22    23    1
    71   143   142    1
    72    78    77    1
    73    78    79    1
    74    71    72    1
    75    90    91    1
    76    93    92    2
    77    23    24   ar
    78    23    25   ar
    79    92    91    1
    80   142   141    1
    81    81    79   ar
    82    91    94    1
    83    79    80   ar
    84   141   140    1
    85    98    99    1
    86   101   100    2
    87   100    99    1
    88   140   137    1
    89    94    95    1
    90    94    96    1
    91   135   134   ar
    92   135   133   ar
    93    99   102    1
    94   134   132   ar
    95    97    95    1
    96   110   109    1
    97   158   157    1
    98   133   131   ar
    99   159   157    1
   100   132   130   ar
   101   111   109    1
   102     7     6   ar
   103   137   138    1
   104   137   136    1
   105   102   104    1
   106   102   103    1
   107   109   106    1
   108     3     2    1
   109     3     4    2
   110   157   154    1
   111   131   130   ar
   112   139   138    2
   113   152   150    1
   114   130   129    1
   115   167   165    1
   116   166   164    1
   117     2     1    1
   118     2     5    1
   119     6     5    1
   120     6     8   ar
   121   154   153    1
   122   154   155    1
   123   122   121    1
   124   122   123    1
   125   120   117    1
   126   129   126    1
   127   121   118   am
   128   164   165    1
   129   164   161    1
   130   106   105    1
   131   106   107    1
   132   150   149    1
   133   108   107    2
   134   153   147   am
   135   156   155    2
   136   124   123    2
   137   118   117    1
   138   118   119    2
   139   149   151    1
   140   149   146    1
   141   147   148    2
   142   147   146    1
   143   117   116    1
   144   126   127    1
   145   126   125    1
   146   162   163    2
   147   162   161    1
   148   161   160    1
   149   127   128    2
   150   116   114   am
   151   146   145    1
   152   112   113    1
   153   114   113    1
   154   114   115    2
