@<TRIPOS>MOLECULE
tmp/2i5eA02.pdb
 96 95 0 0 0
SMALL
GASTEIGER

@<TRIPOS>ATOM
      1  N         19.7190   -4.9060   -1.6560 N.3     7  PRO7       -0.2102
      2  CA        20.0990   -6.1880   -1.0130 C.3     7  PRO7        0.1504
      3  C         18.8850   -6.7950   -0.2970 C.2     7  PRO7        0.2576
      4  O         18.2170   -6.1250    0.5090 O.2     7  PRO7       -0.2718
      5  CB        21.1960   -5.7530   -0.0070 C.3     7  PRO7        0.0282
      6  CG        21.0450   -4.2400    0.1600 C.3     7  PRO7        0.0208
      7  CD        20.4070   -3.7190   -1.1040 C.3     7  PRO7        0.0893
      8  N         18.5220   -8.0190   -0.6140 N.am    8  TYR8       -0.1963
      9  CA        17.2860   -8.6020   -0.0760 C.3     8  TYR8        0.1771
     10  C         17.4030  -10.1360    0.0500 C.2     8  TYR8        0.2619
     11  O         17.8600  -10.8100   -0.8720 O.2     8  TYR8       -0.2715
     12  CB        16.1080   -8.2740   -0.9950 C.3     8  TYR8        0.0574
     13  CG        14.7890   -8.8140   -0.5540 C.ar    8  TYR8       -0.0198
     14  CD1       14.1710   -8.3390    0.6400 C.ar    8  TYR8       -0.0009
     15  CD2       14.1160   -9.8090   -1.3160 C.ar    8  TYR8       -0.0009
     16  CE1       12.9720   -8.8160    1.0670 C.ar    8  TYR8        0.0417
     17  CE2       12.8810  -10.2940   -0.8800 C.ar    8  TYR8        0.0417
     18  CZ        12.3180   -9.7670    0.3020 C.ar    8  TYR8        0.1957
     19  OH        11.1380  -10.2100    0.7580 O.3     8  TYR8       -0.2866
     20  N         16.9590  -10.6960    1.1680 N.am    9  LYS9       -0.1977
     21  CA        16.8040  -12.1550    1.3100 C.3     9  LYS9        0.1596
     22  C         15.5490  -12.3690    2.1260 C.2     9  LYS9        0.2287
     23  O         15.5170  -12.0060    3.3210 O.2     9  LYS9       -0.2864
     24  CB        18.0780  -12.7750    1.9660 C.3     9  LYS9        0.0298
     25  CG        18.0050  -14.2280    2.5690 C.3     9  LYS9        0.0038
     26  CD        19.4800  -14.7550    2.8570 C.3     9  LYS9        0.0206
     27  CE        19.7220  -16.0690    3.6660 C.3     9  LYS9        0.1093
     28  NZ        18.7800  -17.1030    3.2930 N.3     9  LYS9       -0.1314
     29  N         19.2980   -7.4900   -5.2150 N.3    51  LEU51      -0.1231
     30  CA        20.4120   -8.4280   -5.1940 C.3    51  LEU51       0.1693
     31  C         20.1900   -9.4070   -4.0320 C.2    51  LEU51       0.2593
     32  O         20.2160   -9.0320   -2.8390 O.2    51  LEU51      -0.2718
     33  CB        21.6980   -7.6030   -5.0570 C.3    51  LEU51       0.0284
     34  CG        23.0630   -8.2720   -5.0630 C.3    51  LEU51       0.0019
     35  CD1       23.3850   -8.6620   -6.5200 C.3    51  LEU51       0.0001
     36  CD2       24.0060   -7.2420   -4.5480 C.3    51  LEU51       0.0001
     37  N         19.9130  -10.6470   -4.3910 N.am   52  SER52      -0.1939
     38  CA        19.3690  -11.6780   -3.5290 C.3    52  SER52       0.2040
     39  C         20.1430  -12.9930   -3.7820 C.2    52  SER52       0.2485
     40  O         20.5730  -13.2500   -4.9530 O.2    52  SER52      -0.2729
     41  CB        17.9240  -11.8540   -3.9240 C.3    52  SER52       0.2129
     42  OG        17.3590  -12.9880   -3.3480 O.3    52  SER52      -0.2179
     43  N         20.3690  -13.7990   -2.7290 N.am   53  PRO53      -0.2726
     44  CA        21.1650  -15.0480   -2.8910 C.3    53  PRO53       0.1402
     45  C         20.3750  -16.2240   -3.4770 C.2    53  PRO53       0.2269
     46  O         20.9580  -17.2640   -3.8570 O.2    53  PRO53      -0.2865
     47  CB        21.6480  -15.3470   -1.4690 C.3    53  PRO53       0.0296
     48  CG        20.5390  -14.8200   -0.5470 C.3    53  PRO53       0.0237
     49  CD        19.9250  -13.5910   -1.3300 C.3    53  PRO53       0.0939
     50  N         23.1640  -13.4750   -6.3710 N.3    68  ASP68      -0.1225
     51  CA        24.5100  -13.5500   -5.9780 C.3    68  ASP68       0.1805
     52  C         24.5050  -14.1720   -4.6150 C.2    68  ASP68       0.2598
     53  O         24.0950  -13.5790   -3.6310 O.2    68  ASP68      -0.2718
     54  CB        25.1470  -12.1450   -5.9820 C.3    68  ASP68       0.1424
     55  CG        26.6490  -12.1920   -5.7440 C.2    68  ASP68       0.3668
     56  OD1       27.1370  -13.1900   -5.1870 O.co2  68  ASP68      -0.2456
     57  OD2       27.3550  -11.2550   -6.1400 O.co2  68  ASP68      -0.2456
     58  N         24.9560  -15.4010   -4.5520 N.am   69  GLU69      -0.1965
     59  CA        25.0770  -16.0940   -3.2810 C.3    69  GLU69       0.1733
     60  C         26.1990  -15.5900   -2.3510 C.2    69  GLU69       0.2616
     61  O         26.2640  -16.0580   -1.2540 O.2    69  GLU69      -0.2715
     62  CB        25.2740  -17.5610   -3.5410 C.3    69  GLU69       0.0429
     63  CG        24.3970  -18.0650   -4.7200 C.3    69  GLU69       0.1163
     64  CD        24.7540  -19.5070   -5.0640 C.2    69  GLU69       0.3649
     65  OE1       24.9880  -19.7700   -6.2810 O.co2  69  GLU69      -0.2457
     66  OE2       24.8350  -20.3360   -4.1010 O.co2  69  GLU69      -0.2457
     67  N         27.0730  -14.6730   -2.7510 N.am   70  LYS70      -0.1963
     68  CA        28.1420  -14.2220   -1.7800 C.3    70  LYS70       0.1728
     69  C         27.5880  -13.3180   -0.6580 C.2    70  LYS70       0.2616
     70  O         26.4650  -12.8040   -0.7800 O.2    70  LYS70      -0.2715
     71  CB        29.3170  -13.4830   -2.4470 C.3    70  LYS70       0.0311
     72  CG        29.5640  -13.6740   -3.9370 C.3    70  LYS70       0.0038
     73  CD        30.7680  -14.6060   -4.2780 C.3    70  LYS70       0.0206
     74  CE        30.6470  -16.0010   -3.5790 C.3    70  LYS70       0.1093
     75  NZ        31.9520  -16.7490   -3.6170 N.3    70  LYS70      -0.1314
     76  N         28.3950  -13.1260    0.4010 N.am   71  ASP71      -0.1957
     77  CA        28.1280  -12.2580    1.5860 C.3    71  ASP71       0.1840
     78  C         27.8240  -10.8580    1.0820 C.2    71  ASP71       0.2621
     79  O         28.3600  -10.4910    0.0690 O.2    71  ASP71      -0.2715
     80  CB        29.3850  -12.2380    2.5800 C.3    71  ASP71       0.1450
     81  CG        30.0890  -10.7710    2.7420 C.2    71  ASP71       0.3671
     82  OD1       29.7120   -9.9270    3.6840 O.co2  71  ASP71      -0.2456
     83  OD2       31.0290  -10.4620    1.9550 O.co2  71  ASP71      -0.2456
     84  N         27.0030  -10.1060    1.8130 N.am   72  LEU72      -0.1977
     85  CA        26.4940   -8.7900    1.4240 C.3    72  LEU72       0.1596
     86  C         27.5130   -7.8550    0.8060 C.2    72  LEU72       0.2287
     87  O         27.3140   -7.2820   -0.2830 O.2    72  LEU72      -0.2864
     88  CB        25.8480   -8.0990    2.6720 C.3    72  LEU72       0.0297
     89  CG        25.3130   -6.6590    2.4500 C.3    72  LEU72       0.0022
     90  CD1       24.2360   -6.7110    1.4020 C.3    72  LEU72       0.0001
     91  CD2       24.7460   -6.0310    3.7200 C.3    72  LEU72       0.0001
     92  N         29.0150   -9.2760   -2.5790 N.3    75  ALA75      -0.1245
     93  CA        28.0350   -9.0230   -3.6160 C.3    75  ALA75       0.1562
     94  C         27.9300   -7.5470   -3.9910 C.2    75  ALA75       0.2260
     95  O         28.0590   -7.1640   -5.1950 O.2    75  ALA75      -0.2867
     96  CB        26.7000   -9.5470   -3.1640 C.3    75  ALA75       0.0290
@<TRIPOS>BOND
     1    35    34    1
     2    50    51    1
     3    65    64   ar
     4    57    55   ar
     5    54    51    1
     6    54    55    1
     7    51    52    1
     8    55    56   ar
     9    29    30    1
    10    95    94    2
    11    30    33    1
    12    30    31    1
    13    64    63    1
    14    64    66   ar
    15    34    33    1
    16    34    36    1
    17    40    39    2
    18    63    62    1
    19    52    58   am
    20    52    53    2
    21    58    59    1
    22    37    31   am
    23    37    38    1
    24    73    72    1
    25    73    74    1
    26    31    32    2
    27    94    93    1
    28    72    71    1
    29    41    38    1
    30    41    42    1
    31    46    45    2
    32    39    38    1
    33    39    43   am
    34    75    74    1
    35    93    96    1
    36    93    92    1
    37    62    59    1
    38    45    44    1
    39    59    60    1
    40    44    43    1
    41    44    47    1
    42    67    60   am
    43    67    68    1
    44    43    49    1
    45    71    68    1
    46    60    61    2
    47    68    69    1
    48     1     7    1
    49     1     2    1
    50    47    48    1
    51    49    48    1
    52    15    17   ar
    53    15    13   ar
    54     7     6    1
    55     2     3    1
    56     2     5    1
    57    12    13    1
    58    12     9    1
    59    17    18   ar
    60    11    10    2
    61    70    69    2
    62    69    76   am
    63     8     3   am
    64     8     9    1
    65    13    14   ar
    66     3     4    2
    67    87    86    2
    68     9    10    1
    69     5     6    1
    70    10    20   am
    71    79    78    2
    72    18    19    1
    73    18    16   ar
    74    76    77    1
    75    14    16   ar
    76    86    85    1
    77    78    77    1
    78    78    84   am
    79    20    21    1
    80    21    24    1
    81    21    22    1
    82    90    89    1
    83    85    84    1
    84    85    88    1
    85    77    80    1
    86    83    81   ar
    87    24    25    1
    88    22    23    2
    89    89    88    1
    90    89    91    1
    91    25    26    1
    92    80    81    1
    93    81    82   ar
    94    26    27    1
    95    28    27    1
