@<TRIPOS>MOLECULE
tmp/2i5eA01.pdb
 87 80 0 0 0
SMALL
GASTEIGER

@<TRIPOS>ATOM
      1  N         14.4860  -11.4160    9.2830 N.3    14  LYS14      -0.1245
      2  CA        14.4990  -10.3710   10.3670 C.3    14  LYS14       0.1561
      3  C         14.3800  -11.0470   11.7700 C.2    14  LYS14       0.2260
      4  O         13.4590  -10.8360   12.5230 O.2    14  LYS14      -0.2867
      5  CB        13.3310   -9.3700   10.2110 C.3    14  LYS14       0.0271
      6  CG        13.4720   -8.2620    9.1110 C.3    14  LYS14       0.0035
      7  CD        14.6150   -7.2940    9.4100 C.3    14  LYS14       0.0206
      8  CE        14.7760   -6.2300    8.2690 C.3    14  LYS14       0.1093
      9  NZ        15.7940   -5.3060    8.8240 N.3    14  LYS14      -0.1314
     10  N         14.2370   -2.3440    4.1390 N.3    92  ASP92      -0.1239
     11  CA        13.5130   -2.2180    5.3590 C.3    92  ASP92       0.1674
     12  C         13.2090   -0.7910    5.7780 C.2    92  ASP92       0.2266
     13  O         13.2380   -0.4440    6.9840 O.2    92  ASP92      -0.2867
     14  CB        14.2170   -3.0090    6.4930 C.3    92  ASP92       0.1410
     15  CG        15.6160   -2.5530    6.7550 C.2    92  ASP92       0.3668
     16  OD1       16.1070   -1.6980    6.0110 O.co2  92  ASP92      -0.2456
     17  OD2       16.2130   -3.0330    7.7450 O.co2  92  ASP92      -0.2456
     18  N         21.2500    4.7660    9.6750 N.3   116  GLY116     -0.1210
     19  CA        20.1440    4.1420   10.3130 C.3   116  GLY116      0.1956
     20  C         20.4390    4.0910   11.7980 C.2   116  GLY116      0.2612
     21  O         21.4210    4.7020   12.2830 O.2   116  GLY116     -0.2717
     22  N         19.5740    3.4380   12.5810 N.am  117  LYS117     -0.1965
     23  CA        20.0010    3.4050   14.0340 C.3   117  LYS117      0.1728
     24  C         21.2240    2.4910   14.3510 C.2   117  LYS117      0.2616
     25  O         21.5980    1.6280   13.5460 O.2   117  LYS117     -0.2715
     26  CB        18.8840    3.1940   15.0240 C.3   117  LYS117      0.0311
     27  CG        18.2030    1.9130   14.8300 C.3   117  LYS117      0.0038
     28  CD        17.2620    1.6010   16.0580 C.3   117  LYS117      0.0206
     29  CE        16.0840    0.6880   15.5500 C.3   117  LYS117      0.1093
     30  NZ        16.4370   -0.0680   14.1810 N.3   117  LYS117     -0.1314
     31  N         21.7790    2.6880   15.5500 N.am  118  GLY118     -0.1955
     32  CA        23.0310    2.1080   16.0370 C.3   118  GLY118      0.1869
     33  C         24.1620    2.2090   15.0600 C.2   118  GLY118      0.2309
     34  O         24.9080    1.2500   14.9280 O.2   118  GLY118     -0.2863
     35  N         24.2450    2.0640   11.7150 N.3   120  GLY120     -0.1225
     36  CA        24.0820    1.3830   10.4070 C.3   120  GLY120      0.1811
     37  C         24.0130    2.3890    9.2620 C.2   120  GLY120      0.2280
     38  O         24.0810    3.5750    9.5340 O.2   120  GLY120     -0.2866
     39  N         21.5710    3.1950    5.9000 N.3   122  ASN122     -0.1240
     40  CA        20.2700    2.8160    5.3400 C.3   122  ASN122      0.1653
     41  C         20.1950    3.0470    3.8260 C.2   122  ASN122      0.2266
     42  O         19.4640    2.3500    3.1400 O.2   122  ASN122     -0.2867
     43  CB        19.1170    3.5840    6.0640 C.3   122  ASN122      0.1155
     44  CG        18.6960    2.8780    7.3790 C.2   122  ASN122      0.2627
     45  OD1       19.1310    1.7570    7.6640 O.2   122  ASN122     -0.2716
     46  ND2       17.8630    3.5160    8.1440 N.am  122  ASN122     -0.0877
     47  N         27.2660   -3.6520    7.9750 N.3   137  TYR137     -0.1227
     48  CA        27.4290   -4.3460    9.3090 C.3   137  TYR137      0.1736
     49  C         28.3250   -3.5720   10.2330 C.2   137  TYR137      0.2596
     50  O         29.2120   -2.8120    9.7690 O.2   137  TYR137     -0.2718
     51  CB        27.9200   -5.8190    9.2600 C.3   137  TYR137      0.0548
     52  CG        27.0990   -6.7030    8.4010 C.ar  137  TYR137     -0.0200
     53  CD1       25.7290   -6.8370    8.6120 C.ar  137  TYR137     -0.0009
     54  CD2       27.6910   -7.3970    7.3290 C.ar  137  TYR137     -0.0009
     55  CE1       24.9360   -7.6340    7.7730 C.ar  137  TYR137      0.0417
     56  CE2       26.9140   -8.2090    6.4910 C.ar  137  TYR137      0.0417
     57  CZ        25.5460   -8.2990    6.7060 C.ar  137  TYR137      0.1957
     58  OH        24.8220   -9.1090    5.8740 O.3   137  TYR137     -0.2866
     59  N         28.1420   -3.8030   11.5390 N.am  138  GLY138     -0.1957
     60  CA        28.9590   -3.1130   12.5250 C.3   138  GLY138      0.1869
     61  C         28.7230   -1.6650   12.4080 C.2   138  GLY138      0.2309
     62  O         27.6150   -1.1670   12.1580 O.2   138  GLY138     -0.2863
     63  N         14.8930    2.3330   10.0090 N.3   165  ASP165     -0.1239
     64  CA        14.8990    0.9870    9.4890 C.3   165  ASP165      0.1674
     65  C         14.1510    0.1520   10.5260 C.2   165  ASP165      0.2266
     66  O         14.1450    0.4510   11.7280 O.2   165  ASP165     -0.2867
     67  CB        16.3100    0.4670    9.2830 C.3   165  ASP165      0.1410
     68  CG        17.2170    0.6820   10.5070 C.2   165  ASP165      0.3668
     69  OD1       17.5900    1.8180   10.8120 O.co2 165  ASP165     -0.2456
     70  OD2       17.5020   -0.2960   11.1830 O.co2 165  ASP165     -0.2456
     71  N         13.8350   -3.0690   12.3570 N.3   167  ASP167     -0.1225
     72  CA        14.6540   -4.2660   12.6760 C.3   167  ASP167      0.1805
     73  C         14.2880   -4.9880   13.9820 C.2   167  ASP167      0.2597
     74  O         14.4320   -6.1830   14.1210 O.2   167  ASP167     -0.2718
     75  CB        16.1600   -3.9120   12.6900 C.3   167  ASP167      0.1424
     76  CG        17.0650   -5.1240   12.4400 C.2   167  ASP167      0.3668
     77  OD1       16.7970   -5.9670   11.4980 O.co2 167  ASP167     -0.2456
     78  OD2       18.0290   -5.1920   13.2390 O.co2 167  ASP167     -0.2456
     79  N         13.7880   -4.2340   14.9300 N.am  168  GLU168     -0.1979
     80  CA        13.3120   -4.8150   16.1520 C.3   168  GLU168      0.1602
     81  C         11.8970   -4.3370   16.5270 C.2   168  GLU168      0.2287
     82  O         11.3880   -3.4440   15.8610 O.2   168  GLU168     -0.2864
     83  CB        14.3210   -4.6100   17.2520 C.3   168  GLU168      0.0415
     84  CG        14.7410   -3.2220   17.4530 C.3   168  GLU168      0.1163
     85  CD        15.9960   -3.1390   18.2500 C.2   168  GLU168      0.3649
     86  OE1       16.5250   -4.2030   18.6550 O.co2 168  GLU168     -0.2457
     87  OE2       16.4520   -2.0090   18.4760 O.co2 168  GLU168     -0.2457
@<TRIPOS>BOND
     1    42    41    2
     2    41    40    1
     3    10    11    1
     4    40    39    1
     5    40    43    1
     6    11    12    1
     7    11    14    1
     8    12    13    2
     9    58    57    1
    10    16    15   ar
    11    43    44    1
    12    56    57   ar
    13    56    54   ar
    14    14    15    1
    15    57    55   ar
    16    15    17   ar
    17    54    52   ar
    18    44    45    2
    19    44    46   am
    20    55    53   ar
    21    47    48    1
    22     8     9    1
    23     8     7    1
    24    52    53   ar
    25    52    51    1
    26     6     7    1
    27     6     5    1
    28    51    48    1
    29    37    38    2
    30    37    36    1
    31    67    64    1
    32    67    68    1
    33     1     2    1
    34    48    49    1
    35    64    63    1
    36    64    65    1
    37    18    19    1
    38    50    49    2
    39     5     2    1
    40    49    59   am
    41    19    20    1
    42     2     3    1
    43    36    35    1
    44    68    69   ar
    45    68    70   ar
    46    65    66    2
    47    77    76   ar
    48    59    60    1
    49     3     4    2
    50    20    21    2
    51    20    22   am
    52    62    61    2
    53    71    72    1
    54    61    60    1
    55    76    75    1
    56    76    78   ar
    57    22    23    1
    58    72    75    1
    59    72    73    1
    60    25    24    2
    61    73    74    2
    62    73    79   am
    63    23    24    1
    64    23    26    1
    65    30    29    1
    66    24    31   am
    67    27    26    1
    68    27    28    1
    69    34    33    2
    70    79    80    1
    71    33    32    1
    72    29    28    1
    73    31    32    1
    74    82    81    2
    75    80    81    1
    76    80    83    1
    77    83    84    1
    78    84    85    1
    79    85    87   ar
    80    85    86   ar
