@<TRIPOS>MOLECULE
tmp/2i5fA00.pdb
 114 110 0 0 0
SMALL
GASTEIGER

@<TRIPOS>ATOM
      1  N         -0.6210   -7.0900   -8.5090 N.3    13  LYS13      -0.1245
      2  CA        -1.0870   -8.4180   -8.2290 C.3    13  LYS13       0.1561
      3  C         -0.8680   -8.6420   -6.7340 C.2    13  LYS13       0.2260
      4  O          0.2290   -8.3140   -6.1840 O.2    13  LYS13      -0.2867
      5  CB        -0.1810   -9.3980   -9.0300 C.3    13  LYS13       0.0271
      6  CG        -0.5200  -10.7900   -8.7390 C.3    13  LYS13       0.0035
      7  CD         0.4950  -11.6630   -9.5670 C.3    13  LYS13       0.0206
      8  CE         0.9710  -12.9130   -8.8780 C.3    13  LYS13       0.1093
      9  NZ         2.0490  -12.4670   -7.8380 N.3    13  LYS13      -0.1314
     10  N          0.0080  -11.0070   -3.5810 N.3    15  GLY15      -0.1210
     11  CA         0.5640  -12.3210   -3.3080 C.3    15  GLY15       0.1956
     12  C         -0.3410  -13.1280   -2.4560 C.2    15  GLY15       0.2612
     13  O         -1.0800  -12.5470   -1.5920 O.2    15  GLY15      -0.2717
     14  N         -0.0550  -14.4360   -2.4510 N.am   16  HIS16      -0.1961
     15  CA        -1.0560  -15.3230   -1.8520 C.3    16  HIS16       0.1787
     16  C         -1.0190  -15.3420   -0.2690 C.2    16  HIS16       0.2620
     17  O         -2.0640  -15.3070    0.4720 O.2    16  HIS16      -0.2715
     18  CB        -1.0610  -16.7080   -2.6250 C.3    16  HIS16       0.0785
     19  CG        -1.6030  -16.5900   -4.0720 C.ar   16  HIS16       0.0821
     20  ND1       -0.8440  -16.1200   -5.1240 N.ar   16  HIS16      -0.2267
     21  CD2       -2.8040  -16.9020   -4.6160 C.ar   16  HIS16       0.1154
     22  CE1       -1.5760  -16.0410   -6.2270 C.ar   16  HIS16       0.1986
     23  NE2       -2.7690  -16.5200   -5.9460 N.ar   16  HIS16      -0.2212
     24  N          0.2130  -15.3010    0.2420 N.am   17  ARG17      -0.1963
     25  CA         0.5040  -15.7040    1.6260 C.3    17  ARG17       0.1729
     26  C          0.5560  -14.4960    2.4610 C.2    17  ARG17       0.2616
     27  O         -0.1050  -14.3900    3.4530 O.2    17  ARG17      -0.2715
     28  CB         1.8590  -16.3380    1.5240 C.3    17  ARG17       0.0348
     29  CG         1.7030  -17.8690    1.3230 C.3    17  ARG17       0.0492
     30  CD         3.1110  -18.5120    1.2730 C.3    17  ARG17       0.2205
     31  NE         4.0720  -17.5840    0.6590 N.pl3  17  ARG17      -0.0865
     32  CZ         5.3950  -17.7650    0.7480 C.cat  17  ARG17       0.5346
     33  NH1        5.9430  -18.8110    1.3700 N.pl3  17  ARG17       0.1354
     34  NH2        6.1720  -16.8640    0.1910 N.pl3  17  ARG17       0.1354
     35  N          1.3020  -13.4710    2.0120 N.am   18  ARG18      -0.1963
     36  CA         1.4640  -12.2550    2.8760 C.3    18  ARG18       0.1729
     37  C          0.5660  -11.1140    2.4230 C.2    18  ARG18       0.2616
     38  O          0.4270  -10.0690    3.0920 O.2    18  ARG18      -0.2715
     39  CB         2.9640  -11.7110    2.8800 C.3    18  ARG18       0.0348
     40  CG         3.9830  -12.6200    3.6170 C.3    18  ARG18       0.0492
     41  CD         5.1610  -11.7680    4.0620 C.3    18  ARG18       0.2205
     42  NE         6.0830  -11.5770    2.9920 N.pl3  18  ARG18      -0.0865
     43  CZ         7.2780  -10.9790    3.1080 C.cat  18  ARG18       0.5346
     44  NH1        7.6830  -10.2520    4.1650 N.pl3  18  ARG18       0.1354
     45  NH2        7.9880  -11.0060    1.9910 N.pl3  18  ARG18       0.1354
     46  N          0.0430  -11.2350    1.1930 N.am   19  LYS19      -0.1963
     47  CA        -1.0430  -10.3110    0.7500 C.3    19  LYS19       0.1728
     48  C         -0.5590   -8.9490    0.3350 C.2    19  LYS19       0.2616
     49  O         -1.2990   -7.9550    0.3710 O.2    19  LYS19      -0.2715
     50  CB        -2.1810  -10.1010    1.8130 C.3    19  LYS19       0.0311
     51  CG        -2.8110  -11.3550    2.3380 C.3    19  LYS19       0.0038
     52  CD        -3.8780  -11.9900    1.4260 C.3    19  LYS19       0.0206
     53  CE        -4.6760  -13.0110    2.2520 C.3    19  LYS19       0.1093
     54  NZ        -6.1110  -13.1040    1.7740 N.3    19  LYS19      -0.1314
     55  N          0.7330   -8.8710   -0.0160 N.am   20  ASN20      -0.1972
     56  CA         1.1730   -7.5850   -0.4930 C.3    20  ASN20       0.1688
     57  C          0.9040   -7.4490   -1.9700 C.2    20  ASN20       0.2292
     58  O          0.8220   -8.4150   -2.7130 O.2    20  ASN20      -0.2864
     59  CB         2.6250   -7.4410   -0.1600 C.3    20  ASN20       0.1181
     60  CG         2.8280   -7.4210    1.4250 C.2    20  ASN20       0.2629
     61  OD1        2.1160   -6.6860    2.1250 O.2    20  ASN20      -0.2716
     62  ND2        3.6170   -8.3160    1.9510 N.am   20  ASN20      -0.0877
     63  N          2.1310   -6.0570   -5.7380 N.3    22  LYS22      -0.1245
     64  CA         3.3150   -5.7190   -6.4990 C.3    22  LYS22       0.1561
     65  C          2.9530   -5.4690   -7.9160 C.2    22  LYS22       0.2260
     66  O          2.1040   -6.1620   -8.5300 O.2    22  LYS22      -0.2867
     67  CB         4.3290   -6.8870   -6.5220 C.3    22  LYS22       0.0271
     68  CG         4.8130   -7.1820   -5.2440 C.3    22  LYS22       0.0035
     69  CD         5.9910   -8.2200   -5.4660 C.3    22  LYS22       0.0206
     70  CE         7.2840   -7.5630   -6.1140 C.3    22  LYS22       0.1093
     71  NZ         8.7470   -8.1330   -5.7800 N.3    22  LYS22      -0.1314
     72  N          3.3410   -5.9400  -11.7390 N.3    24  ARG24      -0.1245
     73  CA         3.9360   -6.8660  -12.6940 C.3    24  ARG24       0.1563
     74  C          3.4630   -6.4980  -14.0630 C.2    24  ARG24       0.2260
     75  O          2.3590   -5.8610  -14.2110 O.2    24  ARG24      -0.2867
     76  CB         3.4950   -8.3200  -12.4130 C.3    24  ARG24       0.0307
     77  CG         4.4250   -9.0430  -11.4550 C.3    24  ARG24       0.0489
     78  CD         4.2930   -8.6730  -10.0480 C.3    24  ARG24       0.2205
     79  NE         5.3750   -9.4090   -9.3540 N.pl3  24  ARG24      -0.0865
     80  CZ         6.6270   -8.9790   -9.2760 C.cat  24  ARG24       0.5346
     81  NH1        7.0070   -7.8390   -9.8130 N.pl3  24  ARG24       0.1354
     82  NH2        7.5520   -9.6650   -8.6030 N.pl3  24  ARG24       0.1354
     83  N          2.9710  -13.2970  -16.5160 N.3    37  TYR37      -0.1241
     84  CA         3.3360  -12.0730  -15.8570 C.3    37  TYR37       0.1605
     85  C          4.8510  -12.1100  -15.5330 C.2    37  TYR37       0.2264
     86  O          5.4740  -13.1350  -15.4300 O.2    37  TYR37      -0.2867
     87  CB         2.5360  -11.7840  -14.5880 C.3    37  TYR37       0.0534
     88  CG         2.4580  -12.9630  -13.6160 C.ar   37  TYR37      -0.0201
     89  CD1        3.3060  -13.0450  -12.5740 C.ar   37  TYR37      -0.0009
     90  CD2        1.4450  -13.9750  -13.7350 C.ar   37  TYR37      -0.0009
     91  CE1        3.2370  -14.1120  -11.6380 C.ar   37  TYR37       0.0417
     92  CE2        1.3470  -14.9990  -12.8110 C.ar   37  TYR37       0.0417
     93  CZ         2.2290  -15.0510  -11.7970 C.ar   37  TYR37       0.1957
     94  OH         2.1280  -16.1430  -10.9120 O.3    37  TYR37      -0.2866
     95  N          7.5470  -14.7660  -14.4660 N.3    47  LEU47      -0.1245
     96  CA         7.3430  -15.1030  -13.0560 C.3    47  LEU47       0.1561
     97  C          6.3490  -16.2140  -12.8900 C.2    47  LEU47       0.2260
     98  O          6.3980  -17.0120  -11.9580 O.2    47  LEU47      -0.2867
     99  CB         6.7440  -13.8260  -12.3770 C.3    47  LEU47       0.0270
    100  CG         7.9130  -12.8390  -12.2560 C.3    47  LEU47       0.0019
    101  CD1        7.1680  -11.6330  -11.7410 C.3    47  LEU47       0.0001
    102  CD2        9.0980  -13.2690  -11.2400 C.3    47  LEU47       0.0001
    103  N         -6.3290  -15.4390   -8.6020 N.3    77  TYR77      -0.1241
    104  CA        -5.4150  -14.3170   -8.8280 C.3    77  TYR77       0.1605
    105  C         -6.1860  -13.0060   -8.6100 C.2    77  TYR77       0.2264
    106  O         -7.1720  -12.7370   -9.3230 O.2    77  TYR77      -0.2867
    107  CB        -4.7730  -14.3310  -10.2460 C.3    77  TYR77       0.0534
    108  CG        -3.9660  -15.5690  -10.4450 C.ar   77  TYR77      -0.0201
    109  CD1       -4.5010  -16.7960  -10.8770 C.ar   77  TYR77      -0.0009
    110  CD2       -2.6070  -15.5270  -10.1410 C.ar   77  TYR77      -0.0009
    111  CE1       -3.7040  -17.9430  -11.0100 C.ar   77  TYR77       0.0417
    112  CE2       -1.8280  -16.7080  -10.3010 C.ar   77  TYR77       0.0417
    113  CZ        -2.3780  -17.8740  -10.6770 C.ar   77  TYR77       0.1957
    114  OH        -1.5630  -19.0050  -10.8330 O.3    77  TYR77      -0.2866
@<TRIPOS>BOND
     1    83    84    1
     2    84    85    1
     3    84    87    1
     4    85    86    2
     5    87    88    1
     6    95    96    1
     7    75    74    2
     8    74    73    1
     9    90    88   ar
    10    90    92   ar
    11    88    89   ar
    12    96    97    1
    13    96    99    1
    14    97    98    2
    15    92    93   ar
    16    73    76    1
    17    73    72    1
    18    89    91   ar
    19    76    77    1
    20    99   100    1
    21   100   101    1
    22   100   102    1
    23    93    91   ar
    24    93    94    1
    25    77    78    1
    26   111   109   ar
    27   111   113   ar
    28   109   108   ar
    29   114   113    1
    30   113   112   ar
    31   108   107    1
    32   108   110   ar
    33   112   110   ar
    34   107   104    1
    35    78    79    1
    36    81    80    1
    37     7     8    1
    38     7     6    1
    39    79    80    2
    40   106   105    2
    41    80    82    1
    42     5     6    1
    43     5     2    1
    44     8     9    1
    45   104   105    1
    46   104   103    1
    47    66    65    2
    48     1     2    1
    49     2     3    1
    50    65    64    1
    51     3     4    2
    52    67    64    1
    53    67    68    1
    54    64    63    1
    55    22    23   ar
    56    22    20   ar
    57    70    71    1
    58    70    69    1
    59    23    21   ar
    60    69    68    1
    61    20    19   ar
    62    21    19   ar
    63    19    18    1
    64    10    11    1
    65    11    12    1
    66    58    57    2
    67    18    15    1
    68    12    14   am
    69    12    13    2
    70    14    15    1
    71    57    56    1
    72    15    16    1
    73    56    59    1
    74    56    55    1
    75    16    24   am
    76    16    17    2
    77    59    60    1
    78    55    48   am
    79    34    32    1
    80    24    25    1
    81    48    49    2
    82    48    47    1
    83    31    32    2
    84    31    30    1
    85    32    33    1
    86    47    46    1
    87    47    50    1
    88    46    37   am
    89    30    29    1
    90    29    28    1
    91    60    62   am
    92    60    61    2
    93    52    53    1
    94    52    51    1
    95    28    25    1
    96    25    26    1
    97    54    53    1
    98    50    51    1
    99    45    43    1
   100    35    26   am
   101    35    36    1
   102    37    36    1
   103    37    38    2
   104    26    27    2
   105    36    39    1
   106    39    40    1
   107    42    43    2
   108    42    41    1
   109    43    44    1
   110    40    41    1
