@<TRIPOS>MOLECULE
tmp/2i5jA03.pdb
 132 132 0 0 0
SMALL
GASTEIGER

@<TRIPOS>ATOM
      1  N         43.9570  -27.5600   26.0640 N.3   108  VAL108     -0.1231
      2  CA        43.9010  -26.3780   25.2540 C.3   108  VAL108      0.1692
      3  C         42.4420  -26.1550   24.9760 C.2   108  VAL108      0.2592
      4  O         41.6350  -27.0880   24.9970 O.2   108  VAL108     -0.2718
      5  CB        44.6840  -26.5400   23.9350 C.3   108  VAL108      0.0266
      6  CG1       46.1030  -26.9970   24.2290 C.3   108  VAL108      0.0020
      7  CG2       43.9940  -27.5180   23.0230 C.3   108  VAL108      0.0020
      8  N         42.1020  -24.9020   24.7470 N.am  109  LEU109     -0.1966
      9  CA        40.7340  -24.5590   24.4680 C.3   109  LEU109      0.1728
     10  C         40.6800  -23.6120   23.2960 C.2   109  LEU109      0.2616
     11  O         41.6010  -22.8280   23.0610 O.2   109  LEU109     -0.2715
     12  CB        40.0950  -23.9240   25.6950 C.3   109  LEU109      0.0311
     13  CG        40.0330  -24.8240   26.9300 C.3   109  LEU109      0.0022
     14  CD1       39.3190  -24.0840   28.0450 C.3   109  LEU109      0.0001
     15  CD2       39.3020  -26.1160   26.6040 C.3   109  LEU109      0.0001
     16  N         39.5870  -23.6990   22.5550 N.am  110  ASP110     -0.1971
     17  CA        39.4100  -22.8540   21.4030 C.3   110  ASP110      0.1709
     18  C         38.1100  -22.0730   21.5070 C.2   110  ASP110      0.2293
     19  O         37.0610  -22.5340   21.0590 O.2   110  ASP110     -0.2864
     20  CB        39.4210  -23.7040   20.1360 C.3   110  ASP110      0.1436
     21  CG        39.4580  -22.8660   18.8870 C.2   110  ASP110      0.3671
     22  OD1       38.4450  -22.1990   18.5900 O.co2 110  ASP110     -0.2456
     23  OD2       40.5060  -22.8620   18.2090 O.co2 110  ASP110     -0.2456
     24  N         47.4370  -20.1000   30.0910 N.3   181  TYR181     -0.1241
     25  CA        48.0550  -19.1060   29.2210 C.3   181  TYR181      0.1605
     26  C         47.0410  -18.6100   28.1990 C.2   181  TYR181      0.2264
     27  O         46.2550  -19.3920   27.6610 O.2   181  TYR181     -0.2867
     28  CB        49.2880  -19.6890   28.5220 C.3   181  TYR181      0.0534
     29  CG        50.3570  -20.1940   29.4750 C.ar  181  TYR181     -0.0201
     30  CD1       50.1830  -21.3800   30.1850 C.ar  181  TYR181     -0.0009
     31  CD2       51.5510  -19.4960   29.6520 C.ar  181  TYR181     -0.0009
     32  CE1       51.1690  -21.8680   31.0400 C.ar  181  TYR181      0.0417
     33  CE2       52.5470  -19.9730   30.5120 C.ar  181  TYR181      0.0417
     34  CZ        52.3480  -21.1610   31.2000 C.ar  181  TYR181      0.1957
     35  OH        53.3270  -21.6470   32.0400 O.3   181  TYR181     -0.2866
     36  N         46.2170  -16.4090   24.5990 N.3   183  TYR183     -0.1241
     37  CA        46.7270  -15.8610   23.3460 C.3   183  TYR183      0.1605
     38  C         45.6740  -16.0300   22.2700 C.2   183  TYR183      0.2264
     39  O         45.4120  -17.1510   21.8260 O.2   183  TYR183     -0.2867
     40  CB        47.9980  -16.5750   22.9080 C.3   183  TYR183      0.0534
     41  CG        48.7440  -15.8200   21.8410 C.ar  183  TYR183     -0.0201
     42  CD1       49.5690  -14.7460   22.1770 C.ar  183  TYR183     -0.0009
     43  CD2       48.5860  -16.1380   20.4870 C.ar  183  TYR183     -0.0009
     44  CE1       50.2150  -14.0010   21.1950 C.ar  183  TYR183      0.0417
     45  CE2       49.2260  -15.3960   19.4950 C.ar  183  TYR183      0.0417
     46  CZ        50.0390  -14.3280   19.8590 C.ar  183  TYR183      0.1957
     47  OH        50.6720  -13.5740   18.8990 O.3   183  TYR183     -0.2866
     48  N         42.8650  -18.6220   22.0710 N.3   186  ASP186     -0.1225
     49  CA        43.4770  -19.8480   22.5760 C.3   186  ASP186      0.1805
     50  C         43.8570  -19.8300   24.0490 C.2   186  ASP186      0.2598
     51  O         44.6200  -18.9750   24.5030 O.2   186  ASP186     -0.2718
     52  CB        44.7210  -20.1910   21.7600 C.3   186  ASP186      0.1424
     53  CG        44.3810  -20.7140   20.3880 C.2   186  ASP186      0.3668
     54  OD1       43.6570  -20.0140   19.6490 O.co2 186  ASP186     -0.2456
     55  OD2       44.8380  -21.8260   20.0500 O.co2 186  ASP186     -0.2456
     56  N         43.3220  -20.7930   24.7880 N.am  187  LEU187     -0.1966
     57  CA        43.6230  -20.9210   26.2030 C.3   187  LEU187      0.1728
     58  C         44.5780  -22.1080   26.3590 C.2   187  LEU187      0.2616
     59  O         44.4740  -23.1030   25.6410 O.2   187  LEU187     -0.2715
     60  CB        42.3300  -21.1220   27.0010 C.3   187  LEU187      0.0311
     61  CG        41.3530  -19.9380   26.9200 C.3   187  LEU187      0.0022
     62  CD1       40.1310  -20.2260   27.7770 C.3   187  LEU187      0.0001
     63  CD2       42.0340  -18.6520   27.3890 C.3   187  LEU187      0.0001
     64  N         45.5190  -21.9910   27.2870 N.am  188  TYR188     -0.1974
     65  CA        46.5090  -23.0390   27.4960 C.3   188  TYR188      0.1639
     66  C         46.4160  -23.6430   28.8810 C.2   188  TYR188      0.2290
     67  O         47.4170  -23.8210   29.5680 O.2   188  TYR188     -0.2864
     68  CB        47.9020  -22.4600   27.3010 C.3   188  TYR188      0.0560
     69  CG        49.0140  -23.4830   27.3550 C.ar  188  TYR188     -0.0198
     70  CD1       49.3750  -24.2110   26.2280 C.ar  188  TYR188     -0.0009
     71  CD2       49.7100  -23.7210   28.5360 C.ar  188  TYR188     -0.0009
     72  CE1       50.3940  -25.1380   26.2680 C.ar  188  TYR188      0.0417
     73  CE2       50.7280  -24.6480   28.5960 C.ar  188  TYR188      0.0417
     74  CZ        51.0690  -25.3540   27.4570 C.ar  188  TYR188      0.1957
     75  OH        52.0890  -26.2730   27.5050 O.3   188  TYR188     -0.2866
     76  N         41.7930  -30.8590   21.0520 N.3   223  LYS223     -0.1245
     77  CA        43.0620  -31.1890   20.3750 C.3   223  LYS223      0.1561
     78  C         43.9790  -32.2660   20.9690 C.2   223  LYS223      0.2260
     79  O         44.1130  -32.3430   22.1910 O.2   223  LYS223     -0.2867
     80  CB        43.8750  -29.9050   20.1880 C.3   223  LYS223      0.0271
     81  CG        43.7660  -29.2440   18.8230 C.3   223  LYS223      0.0035
     82  CD        45.0530  -29.4290   18.0340 C.3   223  LYS223      0.0206
     83  CE        45.0340  -30.7260   17.2380 C.3   223  LYS223      0.1093
     84  NZ        46.2450  -31.5640   17.4610 N.3   223  LYS223     -0.1314
     85  N         50.0290  -33.1350   19.3250 N.3   226  PRO226     -0.2102
     86  CA        50.7930  -32.2560   18.4270 C.3   226  PRO226      0.1504
     87  C         50.1120  -30.9100   18.1560 C.2   226  PRO226      0.2576
     88  O         49.2830  -30.8040   17.2460 O.2   226  PRO226     -0.2718
     89  CB        50.9040  -33.0940   17.1670 C.3   226  PRO226      0.0282
     90  CG        49.5480  -33.7540   17.1170 C.3   226  PRO226      0.0208
     91  CD        49.3510  -34.2000   18.5610 C.3   226  PRO226      0.0893
     92  N         50.4440  -29.8930   18.9480 N.am  227  PHE227     -0.1963
     93  CA        49.8400  -28.5740   18.7700 C.3   227  PHE227      0.1771
     94  C         50.6640  -27.6760   17.8700 C.2   227  PHE227      0.2619
     95  O         51.8960  -27.6930   17.9030 O.2   227  PHE227     -0.2715
     96  CB        49.6640  -27.8580   20.1070 C.3   227  PHE227      0.0574
     97  CG        48.8050  -28.5910   21.0810 C.ar  227  PHE227     -0.0200
     98  CD1       49.3680  -29.2030   22.1980 C.ar  227  PHE227     -0.0042
     99  CD2       47.4310  -28.6660   20.8950 C.ar  227  PHE227     -0.0042
    100  CE1       48.5740  -29.8800   23.1210 C.ar  227  PHE227     -0.0003
    101  CE2       46.6260  -29.3410   21.8130 C.ar  227  PHE227     -0.0003
    102  CZ        47.1990  -29.9500   22.9290 C.ar  227  PHE227     -0.0000
    103  N         49.9700  -26.8750   17.0730 N.am  228  LEU228     -0.1963
    104  CA        50.6420  -25.9610   16.1830 C.3   228  LEU228      0.1728
    105  C         50.5660  -24.5990   16.7970 C.2   228  LEU228      0.2616
    106  O         49.6060  -24.2570   17.4950 O.2   228  LEU228     -0.2715
    107  CB        49.9840  -25.9570   14.8060 C.3   228  LEU228      0.0311
    108  CG        50.0300  -27.3070   14.0780 C.3   228  LEU228      0.0022
    109  CD1       49.3630  -27.1770   12.7150 C.3   228  LEU228      0.0001
    110  CD2       51.4650  -27.7860   13.9400 C.3   228  LEU228      0.0001
    111  N         51.5730  -23.7770   16.5850 N.am  229  TRP229     -0.1974
    112  CA        51.4270  -22.4940   17.2050 C.3   229  TRP229      0.1640
    113  C         52.3510  -21.4300   16.7330 C.2   229  TRP229      0.2290
    114  O         53.5000  -21.3400   17.1610 O.2   229  TRP229     -0.2864
    115  CB        51.5390  -22.6230   18.7140 C.3   229  TRP229      0.0576
    116  CG        51.1570  -21.3710   19.3800 C.ar  229  TRP229      0.0006
    117  CD1       49.9220  -20.7930   19.3930 C.ar  229  TRP229      0.0946
    118  CD2       52.0120  -20.5160   20.1320 C.ar  229  TRP229      0.0152
    119  NE1       49.9540  -19.6270   20.1200 N.ar  229  TRP229     -0.2442
    120  CE2       51.2280  -19.4340   20.5840 C.ar  229  TRP229      0.0810
    121  CE3       53.3690  -20.5580   20.4690 C.ar  229  TRP229      0.0012
    122  CZ2       51.7560  -18.4050   21.3600 C.ar  229  TRP229      0.0191
    123  CZ3       53.8940  -19.5350   21.2410 C.ar  229  TRP229      0.0001
    124  CH2       53.0880  -18.4730   21.6780 C.ar  229  TRP229      0.0015
    125  N         54.3230  -27.9410   19.7250 N.3   234  LEU234     -0.1245
    126  CA        54.4060  -28.2190   21.1420 C.3   234  LEU234      0.1561
    127  C         53.9070  -29.5870   21.5400 C.2   234  LEU234      0.2260
    128  O         52.7000  -29.8370   21.5050 O.2   234  LEU234     -0.2867
    129  CB        53.6310  -27.1620   21.9320 C.3   234  LEU234      0.0270
    130  CG        54.0330  -25.7000   21.7160 C.3   234  LEU234      0.0019
    131  CD1       53.3330  -25.1370   20.4760 C.3   234  LEU234      0.0001
    132  CD2       53.6720  -24.8960   22.9550 C.3   234  LEU234      0.0001
@<TRIPOS>BOND
     1   109   108    1
     2   110   108    1
     3   108   107    1
     4   107   104    1
     5   104   105    1
     6   104   103    1
     7   111   105   am
     8   111   112    1
     9   113   114    2
    10   113   112    1
    11   105   106    2
    12   103    94   am
    13    90    89    1
    14    90    91    1
    15    89    86    1
    16   112   115    1
    17    83    84    1
    18    83    82    1
    19    88    87    2
    20    94    95    2
    21    94    93    1
    22    82    81    1
    23    87    86    1
    24    87    92   am
    25    23    21   ar
    26    86    85    1
    27    91    85    1
    28    22    21   ar
    29   115   116    1
    30    93    92    1
    31    93    96    1
    32    81    80    1
    33    21    20    1
    34    47    46    1
    35   116   117   ar
    36   116   118   ar
    37   117   119   ar
    38    45    46   ar
    39    45    43   ar
    40    54    53   ar
    41   125   126    1
    42    46    44   ar
    43    55    53   ar
    44    96    97    1
    45   119   120   ar
    46   118   121   ar
    47   118   120   ar
    48    20    17    1
    49    80    77    1
    50    77    78    1
    51    77    76    1
    52    53    52    1
    53   121   123   ar
    54   131   130    1
    55    43    41   ar
    56   120   122   ar
    57    99    97   ar
    58    99   101   ar
    59    78    79    2
    60    19    18    2
    61    97    98   ar
    62   126   127    1
    63   126   129    1
    64    44    42   ar
    65   123   124   ar
    66   122   124   ar
    67    17    18    1
    68    17    16    1
    69   128   127    2
    70   130   129    1
    71   130   132    1
    72    52    49    1
    73   101   102   ar
    74    39    38    2
    75    41    42   ar
    76    41    40    1
    77    48    49    1
    78    98   100   ar
    79    38    37    1
    80    16    10   am
    81    49    50    1
    82    40    37    1
    83   102   100   ar
    84     7     5    1
    85    11    10    2
    86    10     9    1
    87    37    36    1
    88     5     6    1
    89     5     2    1
    90    50    51    2
    91    50    56   am
    92     9     8    1
    93     9    12    1
    94     8     3   am
    95    56    57    1
    96     3     4    2
    97     3     2    1
    98     2     1    1
    99    59    58    2
   100    12    13    1
   101    57    58    1
   102    57    60    1
   103    70    72   ar
   104    70    69   ar
   105    72    74   ar
   106    58    64   am
   107    15    13    1
   108    61    60    1
   109    61    63    1
   110    61    62    1
   111    13    14    1
   112    64    65    1
   113    68    69    1
   114    68    65    1
   115    69    71   ar
   116    74    75    1
   117    74    73   ar
   118    65    66    1
   119    27    26    2
   120    26    25    1
   121    28    25    1
   122    28    29    1
   123    71    73   ar
   124    66    67    2
   125    25    24    1
   126    29    31   ar
   127    29    30   ar
   128    31    33   ar
   129    30    32   ar
   130    33    34   ar
   131    32    34   ar
   132    34    35    1
