@<TRIPOS>MOLECULE
tmp/2i5jB00.pdb
 94 88 0 0 0
SMALL
GASTEIGER

@<TRIPOS>ATOM
      1  N         68.0410    1.8970   50.1870 N.3    66  LYS66      -0.1245
      2  CA        69.4650    1.7310   50.4040 C.3    66  LYS66       0.1561
      3  C         69.3370    0.4810   51.2440 C.2    66  LYS66       0.2260
      4  O         70.3010   -0.2320   51.5310 O.2    66  LYS66      -0.2867
      5  CB        70.0630    2.9160   51.1700 C.3    66  LYS66       0.0271
      6  CG        69.4100    4.2880   50.8790 C.3    66  LYS66       0.0035
      7  CD        69.8330    4.9410   49.5660 C.3    66  LYS66       0.0206
      8  CE        69.8530    6.4580   49.7070 C.3    66  LYS66       0.1093
      9  NZ        71.0430    7.0540   49.0160 N.3    66  LYS66      -0.1314
     10  N         71.9340   12.0500   54.0490 N.3   223  TYR223     -0.1241
     11  CA        72.5270   12.6530   52.8430 C.3   223  TYR223      0.1605
     12  C         73.2990   13.9850   52.8510 C.2   223  TYR223      0.2264
     13  O         72.9400   14.9050   52.1080 O.2   223  TYR223     -0.2867
     14  CB        71.4950   12.7160   51.7060 C.3   223  TYR223      0.0534
     15  CG        72.1860   12.7170   50.3600 C.ar  223  TYR223     -0.0201
     16  CD1       73.0240   11.6610   49.9950 C.ar  223  TYR223     -0.0009
     17  CD2       72.1070   13.8130   49.5070 C.ar  223  TYR223     -0.0009
     18  CE1       73.7800   11.7000   48.8260 C.ar  223  TYR223      0.0417
     19  CE2       72.8590   13.8620   48.3250 C.ar  223  TYR223      0.0417
     20  CZ        73.6950   12.8050   47.9960 C.ar  223  TYR223      0.1957
     21  OH        74.4640   12.8680   46.8530 O.3   223  TYR223     -0.2866
     22  N         85.1370   11.0870   39.7070 N.3   345  TYR345     -0.1227
     23  CA        84.3620   10.2600   40.6220 C.3   345  TYR345      0.1736
     24  C         85.3320    9.1760   41.0870 C.2   345  TYR345      0.2595
     25  O         86.3670    8.9530   40.4540 O.2   345  TYR345     -0.2718
     26  CB        83.1500    9.6290   39.9260 C.3   345  TYR345      0.0548
     27  CG        82.3560    8.7160   40.8450 C.ar  345  TYR345     -0.0200
     28  CD1       81.6180    9.2390   41.9080 C.ar  345  TYR345     -0.0009
     29  CD2       82.3860    7.3300   40.6790 C.ar  345  TYR345     -0.0009
     30  CE1       80.9250    8.4030   42.7900 C.ar  345  TYR345      0.0417
     31  CE2       81.6950    6.4810   41.5600 C.ar  345  TYR345      0.0417
     32  CZ        80.9660    7.0310   42.6130 C.ar  345  TYR345      0.1957
     33  OH        80.2750    6.2330   43.5010 O.3   345  TYR345     -0.2866
     34  N         85.0050    8.4990   42.1850 N.am  346  ALA346     -0.1980
     35  CA        85.8980    7.4770   42.7290 C.3   346  ALA346      0.1597
     36  C         85.2680    6.2650   43.4340 C.2   346  ALA346      0.2287
     37  O         84.2720    6.4090   44.1520 O.2   346  ALA346     -0.2864
     38  CB        86.8940    8.1490   43.6830 C.3   346  ALA346      0.0319
     39  N         85.1670    2.5290   48.8590 N.3   349  ARG349     -0.1245
     40  CA        84.8490    1.5640   49.9020 C.3   349  ARG349      0.1563
     41  C         83.9040    0.4690   49.3950 C.2   349  ARG349      0.2260
     42  O         82.8030    0.2840   49.9300 O.2   349  ARG349     -0.2867
     43  CB        84.2020    2.3030   51.0740 C.3   349  ARG349      0.0307
     44  CG        84.1780    1.5410   52.3880 C.3   349  ARG349      0.0489
     45  CD        85.0150    2.2640   53.4380 C.3   349  ARG349      0.2205
     46  NE        84.6120    1.9030   54.7930 N.pl3 349  ARG349     -0.0865
     47  CZ        85.1230    2.4400   55.8970 C.cat 349  ARG349      0.5346
     48  NH1       86.0690    3.3670   55.8120 N.pl3 349  ARG349      0.1354
     49  NH2       84.6800    2.0580   57.0870 N.pl3 349  ARG349      0.1354
     50  N         78.1390   -0.1570   38.1140 N.3   357  LYS357     -0.1245
     51  CA        77.8150    0.3860   39.4530 C.3   357  LYS357      0.1561
     52  C         78.3920    1.7660   39.5970 C.2   357  LYS357      0.2260
     53  O         77.6890    2.6970   39.9550 O.2   357  LYS357     -0.2867
     54  CB        78.3640   -0.5110   40.5590 C.3   357  LYS357      0.0271
     55  CG        78.0930   -0.0050   41.9600 C.3   357  LYS357      0.0035
     56  CD        78.7950   -0.8770   42.9970 C.3   357  LYS357      0.0206
     57  CE        78.7430   -0.2850   44.4050 C.3   357  LYS357      0.1093
     58  NZ        79.5880   -1.0720   45.3770 N.3   357  LYS357     -0.1314
     59  N         76.5930    5.4920   39.8460 N.3   361  GLU361     -0.1245
     60  CA        76.7950    6.4330   40.9540 C.3   361  GLU361      0.1567
     61  C         77.4410    7.7000   40.4330 C.2   361  GLU361      0.2260
     62  O         77.0040    8.8060   40.7590 O.2   361  GLU361     -0.2867
     63  CB        77.6990    5.8470   42.0460 C.3   361  GLU361      0.0388
     64  CG        77.1300    4.6310   42.7500 C.3   361  GLU361      0.1160
     65  CD        78.1690    3.8960   43.5880 C.2   361  GLU361      0.3649
     66  OE1       79.1960    3.4550   43.0310 O.co2 361  GLU361     -0.2457
     67  OE2       77.9500    3.7490   44.8110 O.co2 361  GLU361     -0.2457
     68  N         74.5580    9.7410   39.1140 N.3   364  GLN364     -0.1231
     69  CA        73.6940   10.3480   40.1250 C.3   364  GLN364      0.1698
     70  C         74.4470   11.4810   40.8090 C.2   364  GLN364      0.2592
     71  O         73.8550   12.5000   41.1690 O.2   364  GLN364     -0.2718
     72  CB        73.2700    9.2950   41.1590 C.3   364  GLN364      0.0381
     73  CG        72.3350    8.2480   40.5960 C.3   364  GLN364      0.0905
     74  CD        72.1810    7.0370   41.4950 C.2   364  GLN364      0.2608
     75  OE1       71.1100    6.8140   42.1040 O.2   364  GLN364     -0.2717
     76  NE2       73.2510    6.2320   41.5830 N.am  364  GLN364     -0.0878
     77  N         75.7490   11.2840   40.9980 N.am  365  LYS365     -0.1980
     78  CA        76.5710   12.3030   41.6100 C.3   365  LYS365      0.1596
     79  C         76.4430   13.5670   40.7480 C.2   365  LYS365      0.2287
     80  O         75.8890   14.5770   41.2120 O.2   365  LYS365     -0.2864
     81  CB        78.0210   11.8150   41.6660 C.3   365  LYS365      0.0298
     82  CG        79.0090   12.8240   42.2280 C.3   365  LYS365      0.0038
     83  CD        78.5700   13.2330   43.6100 C.3   365  LYS365      0.0206
     84  CE        79.0910   14.6180   43.9360 C.3   365  LYS365      0.1093
     85  NZ        78.5780   15.1050   45.2490 N.3   365  LYS365     -0.1314
     86  N         69.5830    4.4220   42.6520 N.3   398  GLN398     -0.1245
     87  CA        68.6480    4.6310   43.7550 C.3   398  GLN398      0.1566
     88  C         68.3190    6.0940   44.0050 C.2   398  GLN398      0.2260
     89  O         68.4190    6.5880   45.1090 O.2   398  GLN398     -0.2867
     90  CB        69.2150    3.9940   45.0000 C.3   398  GLN398      0.0367
     91  CG        70.4690    4.6590   45.4730 C.3   398  GLN398      0.0905
     92  CD        71.0510    4.0050   46.7290 C.2   398  GLN398      0.2608
     93  OE1       72.0190    4.5130   47.3300 O.2   398  GLN398     -0.2717
     94  NE2       70.4690    2.8690   47.1250 N.am  398  GLN398     -0.0878
@<TRIPOS>BOND
     1    50    51    1
     2    68    69    1
     3    51    52    1
     4    51    54    1
     5    52    53    2
     6    22    23    1
     7    59    60    1
     8    26    23    1
     9    26    27    1
    10    69    70    1
    11    69    72    1
    12    61    62    2
    13    61    60    1
    14    25    24    2
    15    54    55    1
    16    73    72    1
    17    73    74    1
    18    23    24    1
    19    29    27   ar
    20    29    31   ar
    21    79    80    2
    22    79    78    1
    23    70    77   am
    24    70    71    2
    25    27    28   ar
    26    60    63    1
    27    77    78    1
    28    24    34   am
    29    74    76   am
    30    74    75    2
    31    31    32   ar
    32    78    81    1
    33    81    82    1
    34    28    30   ar
    35    55    56    1
    36    63    64    1
    37    34    35    1
    38    82    83    1
    39    32    30   ar
    40    32    33    1
    41    86    87    1
    42    35    36    1
    43    35    38    1
    44    64    65    1
    45    56    57    1
    46    66    65   ar
    47    36    37    2
    48    65    67   ar
    49    83    84    1
    50    87    88    1
    51    87    90    1
    52    84    85    1
    53    88    89    2
    54    57    58    1
    55    90    91    1
    56    91    92    1
    57    92    94   am
    58    92    93    2
    59    21    20    1
    60    20    19   ar
    61    20    18   ar
    62    19    17   ar
    63    18    16   ar
    64    39    40    1
    65     9     8    1
    66    41    40    1
    67    41    42    2
    68    17    15   ar
    69     7     8    1
    70     7     6    1
    71    40    43    1
    72    16    15   ar
    73     1     2    1
    74    15    14    1
    75     2     5    1
    76     2     3    1
    77     6     5    1
    78    43    44    1
    79     3     4    2
    80    14    11    1
    81    13    12    2
    82    44    45    1
    83    11    12    1
    84    11    10    1
    85    45    46    1
    86    46    47    2
    87    48    47    1
    88    47    49    1
