@<TRIPOS>MOLECULE
tmp/2i5nC01.pdb
 84 83 0 0 0
SMALL
GASTEIGER

@<TRIPOS>ATOM
      1  N         85.6780   67.1090   16.6890 N.3    75  LEU75      -0.1231
      2  CA        86.3120   68.3580   16.3240 C.3    75  LEU75       0.1693
      3  C         85.7310   69.5160   17.1360 C.2    75  LEU75       0.2593
      4  O         86.0330   70.6800   16.8610 O.2    75  LEU75      -0.2718
      5  CB        86.1610   68.5920   14.8150 C.3    75  LEU75       0.0284
      6  CG        86.8120   67.5160   13.9270 C.3    75  LEU75       0.0019
      7  CD1       86.4250   67.7050   12.4740 C.3    75  LEU75       0.0001
      8  CD2       88.3350   67.5160   14.0710 C.3    75  LEU75       0.0001
      9  N         84.9310   69.2660   18.1720 N.am   76  GLY76      -0.1942
     10  CA        84.3510   70.3140   19.0040 C.3    76  GLY76       0.2014
     11  C         85.2860   70.8260   20.0870 C.2    76  GLY76       0.2638
     12  O         86.4160   70.3230   20.2570 O.2    76  GLY76      -0.2714
     13  N         84.8810   71.8330   20.8600 N.am   77  ALA77      -0.1977
     14  CA        85.6930   72.3710   21.9450 C.3    77  ALA77       0.1597
     15  C         85.6170   71.4140   23.1220 C.2    77  ALA77       0.2287
     16  O         84.6040   70.7370   23.3070 O.2    77  ALA77      -0.2864
     17  CB        85.2070   73.7670   22.3500 C.3    77  ALA77       0.0319
     18  N         95.1000   72.4420   25.7570 N.3    86  TRP86      -0.1227
     19  CA        95.8210   71.9550   24.5830 C.3    86  TRP86       0.1737
     20  C         95.2940   72.6330   23.3140 C.2    86  TRP86       0.2595
     21  O         96.0860   73.1100   22.4900 O.2    86  TRP86      -0.2718
     22  CB        95.6920   70.4280   24.4610 C.3    86  TRP86       0.0564
     23  CG        96.3940   69.8990   23.2480 C.ar   86  TRP86       0.0003
     24  CD1       97.6770   69.4420   23.1750 C.ar   86  TRP86       0.0946
     25  CD2       95.8620   69.8150   21.9230 C.ar   86  TRP86       0.0152
     26  NE1       97.9700   69.0660   21.8870 N.ar   86  TRP86      -0.2442
     27  CE2       96.8770   69.2940   21.0940 C.ar   86  TRP86       0.0810
     28  CE3       94.6190   70.1170   21.3490 C.ar   86  TRP86       0.0012
     29  CZ2       96.6920   69.0780   19.7260 C.ar   86  TRP86       0.0191
     30  CZ3       94.4380   69.9060   19.9910 C.ar   86  TRP86       0.0001
     31  CH2       95.4700   69.3890   19.1950 C.ar   86  TRP86       0.0015
     32  N         93.9770   72.7270   23.1120 N.am   87  GLN87      -0.1979
     33  CA        93.3890   73.3440   21.9180 C.3    87  GLN87       0.1601
     34  C         93.8080   74.8050   21.8120 C.2    87  GLN87       0.2287
     35  O         94.2040   75.2650   20.7330 O.2    87  GLN87      -0.2864
     36  CB        91.8520   73.2240   21.9410 C.3    87  GLN87       0.0394
     37  CG        91.3390   71.8070   21.7070 C.3    87  GLN87       0.0908
     38  CD        89.8150   71.6860   21.7880 C.2    87  GLN87       0.2608
     39  OE1       89.1880   72.2600   22.6750 O.2    87  GLN87      -0.2717
     40  NE2       89.2260   70.9150   20.8770 N.am   87  GLN87      -0.0878
     41  N         97.5540   75.1580   20.9420 N.3    90  THR90      -0.1203
     42  CA        97.8150   74.8220   19.5480 C.3    90  THR90       0.1994
     43  C         97.5500   76.0340   18.6710 C.2    90  THR90       0.2617
     44  O         98.3550   76.3340   17.7820 O.2    90  THR90      -0.2717
     45  CB        96.9500   73.6480   19.0700 C.3    90  THR90       0.1784
     46  OG1       97.1960   72.5020   19.8930 O.3    90  THR90      -0.2211
     47  CG2       97.2720   73.3180   17.6160 C.3    90  THR90       0.0376
     48  N         96.4520   76.7670   18.8700 N.am   91  VAL91      -0.1979
     49  CA        96.1760   77.9890   18.1240 C.3    91  VAL91       0.1595
     50  C         97.2620   79.0260   18.3860 C.2    91  VAL91       0.2287
     51  O         97.7210   79.6640   17.4460 O.2    91  VAL91      -0.2864
     52  CB        94.7850   78.5660   18.4690 C.3    91  VAL91       0.0276
     53  CG1       94.6210   79.9650   17.8850 C.3    91  VAL91       0.0022
     54  CG2       93.6960   77.6300   17.9660 C.3    91  VAL91       0.0022
     55  N         98.9770   67.9890   13.6440 N.3   132  GLN132     -0.1231
     56  CA        98.0500   68.5300   14.6550 C.3   132  GLN132      0.1698
     57  C         96.7140   68.9370   14.0660 C.2   132  GLN132      0.2592
     58  O         95.7310   69.0340   14.8060 O.2   132  GLN132     -0.2718
     59  CB        98.6570   69.7490   15.3520 C.3   132  GLN132      0.0381
     60  CG        99.9620   69.4910   16.1110 C.3   132  GLN132      0.0905
     61  CD        99.8410   68.4140   17.1570 C.2   132  GLN132      0.2608
     62  OE1       99.6900   67.2350   16.8170 O.2   132  GLN132     -0.2717
     63  NE2       99.9160   68.8000   18.4400 N.am  132  GLN132     -0.0878
     64  N         96.5980   69.1780   12.7590 N.am  133  VAL133     -0.1980
     65  CA        95.3810   69.7110   12.1680 C.3   133  VAL133      0.1595
     66  C         94.8760   68.8260   11.0370 C.2   133  VAL133      0.2287
     67  O         93.7510   68.3420   11.1120 O.2   133  VAL133     -0.2864
     68  CB        95.5860   71.1470   11.6440 C.3   133  VAL133      0.0276
     69  CG1       94.2980   71.6860   11.0250 C.3   133  VAL133      0.0022
     70  CG2       96.0830   72.0450   12.7670 C.3   133  VAL133      0.0022
     71  N         90.2510   65.9720   17.1840 N.3   142  TRP142     -0.1241
     72  CA        91.4810   66.6080   17.6460 C.3   142  TRP142      0.1605
     73  C         92.2890   65.6630   18.5370 C.2   142  TRP142      0.2264
     74  O         93.5090   65.8000   18.6350 O.2   142  TRP142     -0.2867
     75  CB        91.1650   67.8830   18.4310 C.3   142  TRP142      0.0550
     76  CG        90.4610   68.9180   17.6100 C.ar  142  TRP142      0.0003
     77  CD1       89.2260   69.4480   17.8380 C.ar  142  TRP142      0.0946
     78  CD2       90.9530   69.5470   16.4280 C.ar  142  TRP142      0.0152
     79  NE1       88.9240   70.3780   16.8730 N.ar  142  TRP142     -0.2442
     80  CE2       89.9660   70.4570   15.9930 C.ar  142  TRP142      0.0810
     81  CE3       92.1380   69.4420   15.6890 C.ar  142  TRP142      0.0012
     82  CZ2       90.1170   71.2410   14.8510 C.ar  142  TRP142      0.0191
     83  CZ3       92.2910   70.2290   14.5580 C.ar  142  TRP142      0.0001
     84  CH2       91.2830   71.1170   14.1500 C.ar  142  TRP142      0.0015
@<TRIPOS>BOND
     1    69    68    1
     2    66    67    2
     3    66    65    1
     4    68    65    1
     5    68    70    1
     6    65    64    1
     7     7     6    1
     8    64    57   am
     9    55    56    1
    10     6     8    1
    11     6     5    1
    12    57    56    1
    13    57    58    2
    14    84    83   ar
    15    84    82   ar
    16    83    81   ar
    17    56    59    1
    18     5     2    1
    19    82    80   ar
    20    59    60    1
    21    81    78   ar
    22    80    78   ar
    23    80    79   ar
    24    60    61    1
    25     2     1    1
    26     2     3    1
    27    78    76   ar
    28    62    61    2
    29     4     3    2
    30    79    77   ar
    31     3     9   am
    32    61    63   am
    33    71    72    1
    34    51    50    2
    35    76    77   ar
    36    76    75    1
    37    47    45    1
    38    72    75    1
    39    72    73    1
    40    44    43    2
    41    53    52    1
    42    54    52    1
    43    49    50    1
    44    49    52    1
    45    49    48    1
    46     9    10    1
    47    73    74    2
    48    43    48   am
    49    43    42    1
    50    10    11    1
    51    45    42    1
    52    45    46    1
    53    31    29   ar
    54    31    30   ar
    55    42    41    1
    56    29    27   ar
    57    30    28   ar
    58    11    12    2
    59    11    13   am
    60    35    34    2
    61    13    14    1
    62    40    38   am
    63    27    26   ar
    64    27    25   ar
    65    28    25   ar
    66    37    38    1
    67    37    36    1
    68    38    39    2
    69    34    33    1
    70    26    24   ar
    71    33    36    1
    72    33    32    1
    73    25    23   ar
    74    14    17    1
    75    14    15    1
    76    21    20    2
    77    32    20   am
    78    15    16    2
    79    24    23   ar
    80    23    22    1
    81    20    19    1
    82    22    19    1
    83    19    18    1
