@<TRIPOS>MOLECULE
tmp/2i5rC00.pdb
 83 77 0 0 0
SMALL
GASTEIGER

@<TRIPOS>ATOM
      1  N         20.6130   27.8370   30.4990 N.3    11  GLU11      -0.1231
      2  CA        21.5570   28.5190   31.3840 C.3    11  GLU11       0.1699
      3  C         22.8600   27.7670   31.6100 C.2    11  GLU11       0.2592
      4  O         23.9240   28.4000   31.7360 O.2    11  GLU11      -0.2718
      5  CB        20.8320   28.7980   32.7170 C.3    11  GLU11       0.0402
      6  CG        21.3620   29.8480   33.5680 C.3    11  GLU11       0.1161
      7  CD        20.5420   30.0730   34.8150 C.2    11  GLU11       0.3649
      8  OE1       19.2830   30.0720   34.7710 O.co2  11  GLU11      -0.2457
      9  OE2       21.1340   30.2860   35.8620 O.co2  11  GLU11      -0.2457
     10  N         22.7830   26.4320   31.6920 N.am   12  GLY12      -0.1957
     11  CA        23.9600   25.5900   31.9870 C.3    12  GLY12       0.1869
     12  C         24.1540   24.3760   31.0890 C.2    12  GLY12       0.2309
     13  O         23.2170   23.9190   30.4270 O.2    12  GLY12      -0.2863
     14  N         21.8590   21.5000   31.6730 N.3    15  ASP15      -0.1239
     15  CA        20.5150   21.8490   31.1690 C.3    15  ASP15       0.1674
     16  C         20.4650   21.5380   29.6900 C.2    15  ASP15       0.2266
     17  O         19.5030   20.9500   29.1960 O.2    15  ASP15      -0.2867
     18  CB        20.1850   23.3390   31.3870 C.3    15  ASP15       0.1410
     19  CG        20.2410   23.7370   32.8460 C.2    15  ASP15       0.3668
     20  OD1       19.9000   22.8890   33.7010 O.co2  15  ASP15      -0.2456
     21  OD2       20.6560   24.8780   33.1160 O.co2  15  ASP15      -0.2456
     22  N         25.7600   29.8900   30.2140 N.3    33  ASN33      -0.1225
     23  CA        26.6140   29.7320   31.4130 C.3    33  ASN33       0.1785
     24  C         26.3190   30.8510   32.4080 C.2    33  ASN33       0.2597
     25  O         27.2250   31.6200   32.8200 O.2    33  ASN33      -0.2718
     26  CB        28.1090   29.6670   31.0310 C.3    33  ASN33       0.1169
     27  CG        28.3940   28.5760   30.0010 C.2    33  ASN33       0.2627
     28  OD1       27.9510   27.4330   30.1490 O.2    33  ASN33      -0.2716
     29  ND2       29.1420   28.9250   28.9520 N.am   33  ASN33      -0.0877
     30  N         25.0400   30.9980   32.7360 N.am   34  GLY34      -0.1957
     31  CA        24.6050   32.0050   33.7020 C.3    34  GLY34       0.1869
     32  C         24.3460   33.3440   33.0450 C.2    34  GLY34       0.2309
     33  O         23.7910   33.4020   31.9410 O.2    34  GLY34      -0.2863
     34  N         16.9610   28.5190   34.1430 N.3    58  ASP58      -0.1239
     35  CA        16.6530   27.8470   35.3980 C.3    58  ASP58       0.1674
     36  C         15.9610   28.7830   36.3740 C.2    58  ASP58       0.2266
     37  O         15.9990   30.0040   36.1900 O.2    58  ASP58      -0.2867
     38  CB        17.9460   27.2910   36.0000 C.3    58  ASP58       0.1410
     39  CG        18.6180   26.2940   35.0690 C.2    58  ASP58       0.3668
     40  OD1       17.8730   25.6070   34.3280 O.co2  58  ASP58      -0.2456
     41  OD2       19.8740   26.1790   35.0750 O.co2  58  ASP58      -0.2456
     42  N         16.6310   30.1000   39.1720 N.3    60  ASP60      -0.1225
     43  CA        17.6480   30.5650   40.1070 C.3    60  ASP60       0.1805
     44  C         17.9350   32.0550   39.8740 C.2    60  ASP60       0.2598
     45  O         17.3620   32.6550   38.9520 O.2    60  ASP60      -0.2718
     46  CB        18.9150   29.6880   40.0260 C.3    60  ASP60       0.1424
     47  CG        19.5010   29.5880   38.6290 C.2    60  ASP60       0.3668
     48  OD1       19.2970   30.5030   37.7990 O.co2  60  ASP60      -0.2456
     49  OD2       20.2020   28.5810   38.3740 O.co2  60  ASP60      -0.2456
     50  N         18.7820   32.6420   40.7210 N.am   61  GLU61      -0.1965
     51  CA        18.9930   34.0950   40.6470 C.3    61  GLU61       0.1733
     52  C         19.5030   34.5350   39.2810 C.2    61  GLU61       0.2616
     53  O         19.0200   35.5430   38.7140 O.2    61  GLU61      -0.2715
     54  CB        19.9370   34.5740   41.7470 C.3    61  GLU61       0.0429
     55  CG        20.0350   36.0870   41.8190 C.3    61  GLU61       0.1163
     56  CD        20.5720   36.5560   43.1450 C.2    61  GLU61       0.3649
     57  OE1       19.9740   36.2070   44.1870 O.co2  61  GLU61      -0.2457
     58  OE2       21.5900   37.2730   43.1470 O.co2  61  GLU61      -0.2457
     59  N         20.4740   33.7980   38.7470 N.am   62  ALA62      -0.1977
     60  CA        21.0160   34.1190   37.4190 C.3    62  ALA62       0.1597
     61  C         19.9370   33.9960   36.3500 C.2    62  ALA62       0.2287
     62  O         19.8560   34.8110   35.4490 O.2    62  ALA62      -0.2864
     63  CB        22.2120   33.2200   37.0760 C.3    62  ALA62       0.0319
     64  N         14.1760   23.5750   40.2660 N.3    87  ARG87      -0.1231
     65  CA        15.2950   24.5460   40.2520 C.3    87  ARG87       0.1694
     66  C         16.0260   24.6510   38.8990 C.2    87  ARG87       0.2591
     67  O         16.0710   25.7240   38.3220 O.2    87  ARG87      -0.2718
     68  CB        16.2900   24.3720   41.4170 C.3    87  ARG87       0.0321
     69  CG        17.3350   25.4540   41.3990 C.3    87  ARG87       0.0489
     70  CD        18.1530   25.4450   42.6570 C.3    87  ARG87       0.2205
     71  NE        19.3180   26.3210   42.5070 N.pl3  87  ARG87      -0.0865
     72  CZ        19.9940   26.8590   43.5080 C.cat  87  ARG87       0.5346
     73  NH1       19.6120   26.6710   44.7700 N.pl3  87  ARG87       0.1354
     74  NH2       21.0500   27.6210   43.2500 N.pl3  87  ARG87       0.1354
     75  N         16.6160   23.5540   38.4280 N.am   88  GLU88      -0.1979
     76  CA        17.3380   23.5410   37.1490 C.3    88  GLU88       0.1602
     77  C         16.6440   22.5980   36.1880 C.2    88  GLU88       0.2287
     78  O         16.0830   21.5560   36.5680 O.2    88  GLU88      -0.2864
     79  CB        18.7860   23.0690   37.3370 C.3    88  GLU88       0.0415
     80  CG        19.6130   24.0350   38.1510 C.3    88  GLU88       0.1163
     81  CD        21.1080   23.7060   38.1890 C.2    88  GLU88       0.3649
     82  OE1       21.5670   22.7040   37.6040 O.co2  88  GLU88      -0.2457
     83  OE2       21.8280   24.4850   38.8210 O.co2  88  GLU88      -0.2457
@<TRIPOS>BOND
     1    29    27   am
     2    17    16    2
     3    16    15    1
     4    27    28    2
     5    27    26    1
     6    22    23    1
     7    13    12    2
     8     1     2    1
     9    26    23    1
    10    12    11    1
    11    15    18    1
    12    15    14    1
    13     2     3    1
    14     2     5    1
    15    18    19    1
    16    23    24    1
    17     3    10   am
    18     3     4    2
    19    10    11    1
    20    33    32    2
    21    24    30   am
    22    24    25    2
    23     5     6    1
    24    30    31    1
    25    19    21   ar
    26    19    20   ar
    27    32    31    1
    28     6     7    1
    29    34    35    1
    30    40    39   ar
    31     8     7   ar
    32     7     9   ar
    33    39    41   ar
    34    39    38    1
    35    35    38    1
    36    35    36    1
    37    62    61    2
    38    77    78    2
    39    77    76    1
    40    37    36    2
    41    61    60    1
    42    63    60    1
    43    76    79    1
    44    76    75    1
    45    79    80    1
    46    60    59    1
    47    82    81   ar
    48    48    47   ar
    49    80    81    1
    50    81    83   ar
    51    67    66    2
    52    49    47   ar
    53    75    66   am
    54    47    46    1
    55    53    52    2
    56    59    52   am
    57    66    65    1
    58    45    44    2
    59    42    43    1
    60    52    51    1
    61    44    43    1
    62    44    50   am
    63    46    43    1
    64    65    64    1
    65    65    68    1
    66    51    50    1
    67    51    54    1
    68    69    68    1
    69    69    70    1
    70    54    55    1
    71    55    56    1
    72    71    70    1
    73    71    72    2
    74    56    58   ar
    75    56    57   ar
    76    74    72    1
    77    72    73    1
