@<TRIPOS>MOLECULE
tmp/2i5sA00.pdb
 146 140 0 0 0
SMALL
GASTEIGER

@<TRIPOS>ATOM
      1  N         26.7950    8.8270   11.4690 N.3     1  ASP1       -0.1239
      2  CA        27.0210    9.6940   12.6260 C.3     1  ASP1        0.1674
      3  C         25.7280    9.7560   13.4010 C.2     1  ASP1        0.2266
      4  O         24.6560    9.2600   12.9400 O.2     1  ASP1       -0.2867
      5  CB        27.5090   11.1220   12.2010 C.3     1  ASP1        0.1410
      6  CG        26.6020   11.7850   11.1860 C.2     1  ASP1        0.3668
      7  OD1       25.3630   11.7170   11.3060 O.co2   1  ASP1       -0.2456
      8  OD2       27.1340   12.3680   10.2340 O.co2   1  ASP1       -0.2456
      9  N         22.6340   11.6200   11.9570 N.3     4  THR4       -0.1218
     10  CA        21.9660   10.8690   10.8900 C.3     4  THR4        0.1862
     11  C         21.2900    9.5860   11.3660 C.2     4  THR4        0.2287
     12  O         20.2100    9.2020   10.8510 O.2     4  THR4       -0.2866
     13  CB        22.9660   10.5360    9.7510 C.3     4  THR4        0.1770
     14  OG1       23.6410   11.7420    9.3620 O.3     4  THR4       -0.2211
     15  CG2       22.2540    9.8990    8.5610 C.3     4  THR4        0.0375
     16  N         17.4620    8.3520   10.7370 N.3     8  LYS8       -0.1231
     17  CA        17.2420    7.0900   10.0690 C.3     8  LYS8        0.1693
     18  C         16.5750    6.0350   10.9540 C.2     8  LYS8        0.2592
     19  O         15.8630    5.1620   10.4470 O.2     8  LYS8       -0.2718
     20  CB        18.5710    6.5140    9.5280 C.3     8  LYS8        0.0285
     21  CG        19.2350    7.2470    8.3490 C.3     8  LYS8        0.0035
     22  CD        20.3980    6.3700    7.8280 C.3     8  LYS8        0.0206
     23  CE        21.2040    6.9700    6.6860 C.3     8  LYS8        0.1093
     24  NZ        22.5520    6.3090    6.5920 N.3     8  LYS8       -0.1314
     25  N         16.8530    6.0700   12.2530 N.am    9  HIS9       -0.1976
     26  CA        16.5030    4.9210   13.1130 C.3     9  HIS9        0.1656
     27  C         15.6780    5.1980   14.3780 C.2     9  HIS9        0.2291
     28  O         15.3670    4.2630   15.1010 O.2     9  HIS9       -0.2864
     29  CB        17.7720    4.1330   13.4780 C.3     9  HIS9        0.0771
     30  CG        18.4870    3.5600   12.2870 C.ar    9  HIS9        0.0820
     31  ND1       17.9630    2.5440   11.5220 N.ar    9  HIS9       -0.2267
     32  CD2       19.6870    3.8680   11.7280 C.ar    9  HIS9        0.1154
     33  CE1       18.8010    2.2430   10.5480 C.ar    9  HIS9        0.1986
     34  NE2       19.8490    3.0430   10.6360 N.ar    9  HIS9       -0.2212
     35  N         16.7000    7.0920    2.2700 N.3    27  PHE27      -0.1241
     36  CA        16.6460    5.6350    2.0920 C.3    27  PHE27       0.1605
     37  C         16.6300    5.0810    0.6630 C.2    27  PHE27       0.2264
     38  O         16.9430    3.9070    0.4380 O.2    27  PHE27      -0.2867
     39  CB        15.4200    5.1150    2.8170 C.3    27  PHE27       0.0534
     40  CG        15.4960    5.3170    4.2810 C.ar   27  PHE27      -0.0203
     41  CD1       16.4810    4.6830    5.0080 C.ar   27  PHE27      -0.0042
     42  CD2       14.6130    6.1500    4.9180 C.ar   27  PHE27      -0.0042
     43  CE1       16.5870    4.8650    6.3740 C.ar   27  PHE27      -0.0003
     44  CE2       14.7030    6.3450    6.2950 C.ar   27  PHE27      -0.0003
     45  CZ        15.6810    5.6940    7.0150 C.ar   27  PHE27      -0.0000
     46  N         15.2030    1.4670   -0.4130 N.3    30  LYS30      -0.1245
     47  CA        15.9650    0.2520   -0.1180 C.3    30  LYS30       0.1561
     48  C         15.0580   -0.8110    0.5260 C.2    30  LYS30       0.2260
     49  O         13.9200   -0.5050    0.9070 O.2    30  LYS30      -0.2867
     50  CB        17.1730    0.5680    0.7700 C.3    30  LYS30       0.0271
     51  CG        16.7950    0.8180    2.2450 C.3    30  LYS30       0.0035
     52  CD        17.8470    1.5890    3.0020 C.3    30  LYS30       0.0206
     53  CE        19.1250    0.8000    3.1790 C.3    30  LYS30       0.1093
     54  NZ        18.9320   -0.3910    4.0110 N.3    30  LYS30      -0.1314
     55  N         15.0400   -2.7040    3.4370 N.3    32  LYS32      -0.1231
     56  CA        14.7390   -2.7810    4.8620 C.3    32  LYS32       0.1693
     57  C         15.3310   -1.6070    5.6300 C.2    32  LYS32       0.2592
     58  O         16.4640   -1.1740    5.3610 O.2    32  LYS32      -0.2718
     59  CB        15.2890   -4.0780    5.4690 C.3    32  LYS32       0.0285
     60  CG        14.9470   -4.2670    6.9640 C.3    32  LYS32       0.0035
     61  CD        15.3730   -5.6270    7.4510 C.3    32  LYS32       0.0206
     62  CE        14.6740   -5.9870    8.7360 C.3    32  LYS32       0.1093
     63  NZ        15.2300   -7.2630    9.2530 N.3    32  LYS32      -0.1314
     64  N         14.5620   -1.1130    6.5970 N.am   33  ASN33      -0.1960
     65  CA        15.1120   -0.2440    7.6140 C.3    33  ASN33       0.1819
     66  C         14.4040   -0.4250    8.9610 C.2    33  ASN33       0.2621
     67  O         13.1650   -0.5100    9.0210 O.2    33  ASN33      -0.2715
     68  CB        15.0580    1.2340    7.1960 C.3    33  ASN33       0.1195
     69  CG        15.7820    2.1290    8.2040 C.2    33  ASN33       0.2630
     70  OD1       17.0070    2.1210    8.2690 O.2    33  ASN33      -0.2716
     71  ND2       15.0310    2.8710    9.0010 N.am   33  ASN33      -0.0877
     72  N         15.2010   -0.4840   10.0290 N.am   34  THR34      -0.1951
     73  CA        14.6830   -0.6640   11.3890 C.3    34  THR34       0.1897
     74  C         14.5100    0.6910   12.0880 C.2    34  THR34       0.2313
     75  O         15.4750    1.4530   12.2630 O.2    34  THR34      -0.2863
     76  CB        15.5840   -1.5810   12.2520 C.3    34  THR34       0.1794
     77  OG1       15.8030   -2.8140   11.5680 O.3    34  THR34      -0.2208
     78  CG2       14.9580   -1.8700   13.6660 C.3    34  THR34       0.0378
     79  N         35.5910    2.8600   18.3800 N.3    53  SER53      -0.1217
     80  CA        34.4880    2.2660   17.6190 C.3    53  SER53       0.1889
     81  C         34.2510    0.8110   18.0410 C.2    53  SER53       0.2288
     82  O         35.1690    0.0080   18.0240 O.2    53  SER53      -0.2866
     83  CB        34.7770    2.3150   16.1150 C.3    53  SER53       0.2089
     84  OG        33.6840    1.8120   15.3630 O.3    53  SER53      -0.2183
     85  N         26.7960    0.4200   16.2240 N.3    88  THR88      -0.1218
     86  CA        28.2100    0.7370   16.3610 C.3    88  THR88       0.1862
     87  C         28.2210    1.9880   17.2180 C.2    88  THR88       0.2287
     88  O         27.5450    2.9750   16.8630 O.2    88  THR88      -0.2866
     89  CB        28.8180    1.0810   14.9980 C.3    88  THR88       0.1770
     90  OG1       28.6790   -0.0550   14.1300 O.3    88  THR88      -0.2211
     91  CG2       30.3220    1.4390   15.1390 C.3    88  THR88       0.0375
     92  N         30.5020    5.0900   18.5470 N.3    90  GLU90      -0.1245
     93  CA        31.7360    5.8950   18.3900 C.3    90  GLU90       0.1567
     94  C         31.5520    7.1880   19.1340 C.2    90  GLU90       0.2260
     95  O         30.5530    7.8830   18.9350 O.2    90  GLU90      -0.2867
     96  CB        32.0310    6.1820   16.9160 C.3    90  GLU90       0.0388
     97  CG        32.4570    4.8910   16.1750 C.3    90  GLU90       0.1160
     98  CD        32.5970    5.0480   14.6870 C.2    90  GLU90       0.3649
     99  OE1       32.5090    6.1940   14.1770 O.co2  90  GLU90      -0.2457
    100  OE2       32.8130    4.0000   14.0300 O.co2  90  GLU90      -0.2457
    101  N         26.1940    5.2770   15.6380 N.3    95  VAL95      -0.1231
    102  CA        26.5160    5.8770   14.3440 C.3    95  VAL95       0.1692
    103  C         26.1230    4.9710   13.1860 C.2    95  VAL95       0.2592
    104  O         26.2420    5.3600   12.0250 O.2    95  VAL95      -0.2718
    105  CB        28.0110    6.2760   14.2530 C.3    95  VAL95       0.0266
    106  CG1       28.3220    7.2990   15.3200 C.3    95  VAL95       0.0020
    107  CG2       28.9580    5.0480   14.3600 C.3    95  VAL95       0.0020
    108  N         25.6140    3.7750   13.5020 N.am   96  HIS96      -0.1962
    109  CA        25.3290    2.7670   12.4830 C.3    96  HIS96       0.1787
    110  C         24.4880    1.6980   13.1520 C.2    96  HIS96       0.2620
    111  O         24.7890    1.2870   14.2840 O.2    96  HIS96      -0.2715
    112  CB        26.6740    2.2070   11.9540 C.3    96  HIS96       0.0785
    113  CG        26.5740    0.8950   11.2090 C.ar   96  HIS96       0.0821
    114  ND1       27.1370   -0.2730   11.6960 N.ar   96  HIS96      -0.2267
    115  CD2       26.0310    0.5780   10.0120 C.ar   96  HIS96       0.1154
    116  CE1       26.9330   -1.2530   10.8310 C.ar   96  HIS96       0.1986
    117  NE2       26.2620   -0.7670    9.8010 N.ar   96  HIS96      -0.2212
    118  N         23.4210    1.2810   12.4770 N.am   97  PHE97      -0.1960
    119  CA        22.5590    0.1990   12.9860 C.3    97  PHE97       0.1771
    120  C         23.1090   -1.1260   12.4580 C.2    97  PHE97       0.2619
    121  O         23.2270   -1.3140   11.2370 O.2    97  PHE97      -0.2715
    122  CB        21.1120    0.4030   12.5280 C.3    97  PHE97       0.0574
    123  CG        20.1240   -0.5100   13.2080 C.ar   97  PHE97      -0.0200
    124  CD1       19.8990   -1.8150   12.7300 C.ar   97  PHE97      -0.0042
    125  CD2       19.4580   -0.0910   14.3460 C.ar   97  PHE97      -0.0042
    126  CE1       18.9920   -2.6890   13.4010 C.ar   97  PHE97      -0.0003
    127  CE2       18.5300   -0.9420   15.0040 C.ar   97  PHE97      -0.0003
    128  CZ        18.3140   -2.2270   14.5350 C.ar   97  PHE97      -0.0000
    129  N         23.4540   -2.0260   13.3680 N.am   98  VAL98      -0.1963
    130  CA        24.0930   -3.2860   13.0040 C.3    98  VAL98       0.1727
    131  C         23.0820   -4.3960   12.7240 C.2    98  VAL98       0.2617
    132  O         23.0920   -4.9970   11.6550 O.2    98  VAL98      -0.2715
    133  CB        25.0690   -3.7420   14.0940 C.3    98  VAL98       0.0290
    134  CG1       25.6460   -5.1720   13.7600 C.3    98  VAL98       0.0023
    135  CG2       26.1850   -2.6960   14.2680 C.3    98  VAL98       0.0023
    136  N         22.2070   -4.6740   13.6720 N.am   99  GLY99      -0.1940
    137  CA        21.2350   -5.7480   13.4630 C.3    99  GLY99       0.2014
    138  C         20.2750   -5.8860   14.6030 C.2    99  GLY99       0.2638
    139  O         20.4140   -5.2280   15.6250 O.2    99  GLY99      -0.2714
    140  N         19.2860   -6.7540   14.4220 N.am  100  VAL100     -0.1977
    141  CA        18.2890   -7.0050   15.4500 C.3   100  VAL100      0.1596
    142  C         18.6220   -8.3200   16.1340 C.2   100  VAL100      0.2287
    143  O         18.9130   -9.2880   15.4760 O.2   100  VAL100     -0.2864
    144  CB        16.8760   -7.0080   14.8340 C.3   100  VAL100      0.0276
    145  CG1       15.7980   -7.2780   15.8910 C.3   100  VAL100      0.0022
    146  CG2       16.6070   -5.6340   14.1260 C.3   100  VAL100      0.0022
@<TRIPOS>BOND
     1    46    47    1
     2    47    48    1
     3    47    50    1
     4    38    37    2
     5    48    49    2
     6    37    36    1
     7    50    51    1
     8    36    35    1
     9    36    39    1
    10    51    52    1
    11    39    40    1
    12    52    53    1
    13    53    54    1
    14    55    56    1
    15    40    42   ar
    16    40    41   ar
    17    56    59    1
    18    56    57    1
    19    42    44   ar
    20    41    43   ar
    21    58    57    2
    22    59    60    1
    23    57    64   am
    24    44    45   ar
    25    43    45   ar
    26    24    23    1
    27    64    65    1
    28    23    22    1
    29    60    61    1
    30    68    65    1
    31    68    69    1
    32    61    62    1
    33    65    66    1
    34    22    21    1
    35    69    70    2
    36    69    71   am
    37    21    20    1
    38    15    13    1
    39    62    63    1
    40    66    67    2
    41    66    72   am
    42    14    13    1
    43    20    17    1
    44    13    10    1
    45   117   115   ar
    46   117   116   ar
    47   115   113   ar
    48    72    73    1
    49    17    16    1
    50    17    18    1
    51     8     6   ar
    52    19    18    2
    53    33    34   ar
    54    33    31   ar
    55    34    32   ar
    56   116   114   ar
    57    12    11    2
    58    10    11    1
    59    10     9    1
    60    18    25   am
    61     6     7   ar
    62     6     5    1
    63   113   114   ar
    64   113   112    1
    65   121   120    2
    66    73    74    1
    67    73    76    1
    68     1     2    1
    69    31    30   ar
    70    77    76    1
    71   132   131    2
    72    32    30   ar
    73   112   109    1
    74   104   103    2
    75    74    75    2
    76     5     2    1
    77    76    78    1
    78    25    26    1
    79    30    29    1
    80   120   119    1
    81   120   129   am
    82   118   119    1
    83   118   110   am
    84   109   110    1
    85   109   108    1
    86   122   119    1
    87   122   123    1
    88     2     3    1
    89   131   130    1
    90   131   136   am
    91   124   123   ar
    92   124   126   ar
    93     4     3    2
    94   130   129    1
    95   130   133    1
    96    26    29    1
    97    26    27    1
    98   110   111    2
    99   103   108   am
   100   103   102    1
   101   123   125   ar
   102   126   128   ar
   103   137   136    1
   104   137   138    1
   105   134   133    1
   106   100    98   ar
   107   133   135    1
   108   146   144    1
   109    90    89    1
   110    99    98   ar
   111   105   102    1
   112   105   107    1
   113   105   106    1
   114   102   101    1
   115   125   127   ar
   116    27    28    2
   117   140   138   am
   118   140   141    1
   119   128   127   ar
   120   138   139    2
   121    98    97    1
   122   144   141    1
   123   144   145    1
   124    89    91    1
   125    89    86    1
   126    84    83    1
   127   141   142    1
   128   143   142    2
   129    83    80    1
   130    97    96    1
   131    85    86    1
   132    86    87    1
   133    88    87    2
   134    96    93    1
   135    80    81    1
   136    80    79    1
   137    82    81    2
   138    93    92    1
   139    93    94    1
   140    95    94    2
