@<TRIPOS>MOLECULE
tmp/2i5xB00.pdb
 103 98 0 0 0
SMALL
GASTEIGER

@<TRIPOS>ATOM
      1  N        -31.0820    8.5950   -5.0320 N.3    56  TYR56      -0.1241
      2  CA       -31.2420    7.1590   -5.2310 C.3    56  TYR56       0.1605
      3  C        -32.2650    6.6200   -4.2460 C.2    56  TYR56       0.2264
      4  O        -32.1620    6.8480   -3.0370 O.2    56  TYR56      -0.2867
      5  CB       -29.9080    6.4240   -5.0540 C.3    56  TYR56       0.0534
      6  CG       -28.7960    6.9360   -5.9510 C.ar   56  TYR56      -0.0201
      7  CD1      -28.7190    6.5500   -7.2890 C.ar   56  TYR56      -0.0009
      8  CD2      -27.8260    7.8030   -5.4620 C.ar   56  TYR56      -0.0009
      9  CE1      -27.6990    7.0150   -8.1090 C.ar   56  TYR56       0.0417
     10  CE2      -26.8070    8.2810   -6.2710 C.ar   56  TYR56       0.0417
     11  CZ       -26.7490    7.8830   -7.6000 C.ar   56  TYR56       0.1957
     12  OH       -25.7360    8.3400   -8.4100 O.3    56  TYR56      -0.2866
     13  N        -32.7620    3.8320   -3.1140 N.3    58  ASN58      -0.1225
     14  CA       -32.2530    2.8360   -2.1870 C.3    58  ASN58       0.1785
     15  C        -31.0340    3.2780   -1.3750 C.2    58  ASN58       0.2597
     16  O        -30.3820    2.4570   -0.7370 O.2    58  ASN58      -0.2718
     17  CB       -31.9490    1.5210   -2.9260 C.3    58  ASN58       0.1169
     18  CG       -30.8050    1.6550   -3.9120 C.2    58  ASN58       0.2627
     19  OD1      -30.5210    2.7490   -4.4080 O.2    58  ASN58      -0.2716
     20  ND2      -30.1450    0.5300   -4.2150 N.am   58  ASN58      -0.0877
     21  N        -30.7370    4.5770   -1.3850 N.am   59  ILE59      -0.1980
     22  CA       -29.6720    5.1010   -0.5410 C.3    59  ILE59       0.1595
     23  C        -30.2420    6.2210    0.3250 C.2    59  ILE59       0.2287
     24  O        -30.3690    7.3610   -0.1250 O.2    59  ILE59      -0.2864
     25  CB       -28.4510    5.6040   -1.3590 C.3    59  ILE59       0.0276
     26  CG1      -27.8930    4.4950   -2.2640 C.3    59  ILE59       0.0022
     27  CG2      -27.3600    6.1330   -0.4150 C.3    59  ILE59       0.0022
     28  CD1      -27.0840    3.4460   -1.5290 C.3    59  ILE59       0.0001
     29  N        -16.3310    6.7690   -9.8740 N.3   182  ASP182     -0.1225
     30  CA       -17.4130    6.1520   -9.1130 C.3   182  ASP182      0.1805
     31  C        -17.2410    4.6330   -8.9590 C.2   182  ASP182      0.2597
     32  O        -16.8440    3.9300   -9.9050 O.2   182  ASP182     -0.2718
     33  CB       -18.7740    6.4870   -9.7380 C.3   182  ASP182      0.1424
     34  CG       -19.9210    6.3680   -8.7420 C.2   182  ASP182      0.3668
     35  OD1      -19.6560    6.0280   -7.5670 O.co2 182  ASP182     -0.2456
     36  OD2      -21.0860    6.6120   -9.1390 O.co2 182  ASP182     -0.2456
     37  N        -17.5350    4.1340   -7.7600 N.am  183  HIS183     -0.1975
     38  CA       -17.3780    2.7150   -7.4400 C.3   183  HIS183      0.1656
     39  C        -15.9400    2.2280   -7.5610 C.2   183  HIS183      0.2291
     40  O        -15.6820    1.0200   -7.5790 O.2   183  HIS183     -0.2864
     41  CB       -18.2980    1.8590   -8.3120 C.3   183  HIS183      0.0771
     42  CG       -19.7300    2.2840   -8.2620 C.ar  183  HIS183      0.0820
     43  ND1      -20.3720    2.8700   -9.3330 N.ar  183  HIS183     -0.2267
     44  CD2      -20.6400    2.2290   -7.2620 C.ar  183  HIS183      0.1154
     45  CE1      -21.6190    3.1490   -8.9950 C.ar  183  HIS183      0.1986
     46  NE2      -21.8070    2.7690   -7.7440 N.ar  183  HIS183     -0.2212
     47  N        -20.3090   12.7120   -2.2380 N.3   216  CYS216     -0.1221
     48  CA       -19.9950   12.2620   -3.5840 C.3   216  CYS216      0.1808
     49  C        -21.3090   12.2210   -4.3660 C.2   216  CYS216      0.2602
     50  O        -22.0290   13.2200   -4.4070 O.2   216  CYS216     -0.2717
     51  CB       -19.3020   10.9010   -3.5270 C.3   216  CYS216      0.0970
     52  SG       -20.0350    9.7000   -2.3520 S.3   216  CYS216     -0.0800
     53  N        -21.6570   11.0900   -4.9780 N.am  217  SER217     -0.1938
     54  CA       -22.9720   11.0330   -5.6180 C.3   217  SER217      0.2055
     55  C        -24.0420   10.5060   -4.6490 C.2   217  SER217      0.2642
     56  O        -25.0350   11.1840   -4.3720 O.2   217  SER217     -0.2714
     57  CB       -22.9400   10.1970   -6.8960 C.3   217  SER217      0.2130
     58  OG       -24.1780   10.3210   -7.5800 O.3   217  SER217     -0.2179
     59  N        -23.8220    9.3030   -4.1360 N.am  218  ALA218     -0.1977
     60  CA       -24.7440    8.6990   -3.1730 C.3   218  ALA218      0.1597
     61  C        -24.4200    9.1110   -1.7370 C.2   218  ALA218      0.2287
     62  O        -25.2510    8.9340   -0.8400 O.2   218  ALA218     -0.2864
     63  CB       -24.7150    7.1880   -3.2870 C.3   218  ALA218      0.0319
     64  N        -21.9330    7.5790   -0.0150 N.3   220  VAL220     -0.1231
     65  CA       -21.5410    6.3610    0.7000 C.3   220  VAL220      0.1692
     66  C        -20.1360    5.8430    0.3690 C.2   220  VAL220      0.2593
     67  O        -19.3320    5.6100    1.2670 O.2   220  VAL220     -0.2718
     68  CB       -22.5950    5.2190    0.6080 C.3   220  VAL220      0.0266
     69  CG1      -23.9640    5.6790    1.1370 C.3   220  VAL220      0.0020
     70  CG2      -22.6990    4.6830   -0.8240 C.3   220  VAL220      0.0020
     71  N        -19.8330    5.6350   -0.9100 N.am  221  GLY221     -0.1942
     72  CA       -18.5990    4.9120   -1.2540 C.3   221  GLY221      0.2014
     73  C        -17.3420    5.7630   -1.1660 C.2   221  GLY221      0.2638
     74  O        -16.4600    5.5440   -0.3180 O.2   221  GLY221     -0.2714
     75  N        -17.2630    6.7590   -2.0300 N.am  222  ARG222     -0.1977
     76  CA       -16.0910    7.6130   -2.0580 C.3   222  ARG222      0.1597
     77  C        -16.0700    8.5110   -0.8260 C.2   222  ARG222      0.2287
     78  O        -15.0150    8.7640   -0.2430 O.2   222  ARG222     -0.2864
     79  CB       -16.0600    8.4260   -3.3460 C.3   222  ARG222      0.0334
     80  CG       -15.8810    7.5270   -4.5790 C.3   222  ARG222      0.0492
     81  CD       -16.0990    8.2930   -5.8750 C.3   222  ARG222      0.2205
     82  NE       -17.5030    8.6010   -6.0890 N.pl3 222  ARG222     -0.0865
     83  CZ       -17.9700    9.2550   -7.1450 C.cat 222  ARG222      0.5346
     84  NH1      -17.1320    9.6750   -8.0920 N.pl3 222  ARG222      0.1354
     85  NH2      -19.2770    9.4840   -7.2490 N.pl3 222  ARG222      0.1354
     86  N        -17.9220    1.3980   -0.1940 N.3   260  GLN260     -0.1245
     87  CA       -19.0520    0.7510   -0.8660 C.3   260  GLN260      0.1566
     88  C        -18.6020   -0.4490   -1.7080 C.2   260  GLN260      0.2260
     89  O        -19.4170   -1.3040   -2.0680 O.2   260  GLN260     -0.2867
     90  CB       -19.8220    1.7660   -1.7300 C.3   260  GLN260      0.0367
     91  CG       -21.0930    1.2190   -2.4030 C.3   260  GLN260      0.0905
     92  CD       -20.8830    0.8420   -3.8680 C.2   260  GLN260      0.2608
     93  OE1      -21.4420   -0.1470   -4.3500 O.2   260  GLN260     -0.2717
     94  NE2      -20.0810    1.6260   -4.5800 N.am  260  GLN260     -0.0878
     95  N        -12.1910   -0.3660   -2.5280 N.3   264  GLN264     -0.1245
     96  CA       -12.0430    0.8030   -1.6700 C.3   264  GLN264      0.1566
     97  C        -11.4860    0.3940   -0.3060 C.2   264  GLN264      0.2260
     98  O        -10.6130    1.0630    0.2560 O.2   264  GLN264     -0.2867
     99  CB       -13.3820    1.5430   -1.5310 C.3   264  GLN264      0.0367
    100  CG       -13.6970    2.3890   -2.7510 C.3   264  GLN264      0.0905
    101  CD       -15.1630    2.7710   -2.8620 C.2   264  GLN264      0.2608
    102  OE1      -15.9770    2.4520   -1.9890 O.2   264  GLN264     -0.2717
    103  NE2      -15.5020    3.4600   -3.9350 N.am  264  GLN264     -0.0878
@<TRIPOS>BOND
     1    32    31    2
     2    29    30    1
     3    33    30    1
     4    33    34    1
     5    43    45   ar
     6    43    42   ar
     7    36    34   ar
     8    30    31    1
     9    45    46   ar
    10    31    37   am
    11    34    35   ar
    12    12    11    1
    13    41    42    1
    14    41    38    1
    15    42    44   ar
    16     9    11   ar
    17     9     7   ar
    18    84    83    1
    19    37    38    1
    20    46    44   ar
    21    11    10   ar
    22    58    57    1
    23    40    39    2
    24    39    38    1
    25     7     6   ar
    26    85    83    1
    27    83    82    2
    28    57    54    1
    29    10     8   ar
    30    82    81    1
    31     6     8   ar
    32     6     5    1
    33    81    80    1
    34    54    53    1
    35    54    55    1
    36     2     5    1
    37     2     1    1
    38     2     3    1
    39    53    49   am
    40    55    56    2
    41    55    59   am
    42    94    92   am
    43    80    79    1
    44    19    18    2
    45    50    49    2
    46    49    48    1
    47    93    92    2
    48     3     4    2
    49    20    18   am
    50    59    60    1
    51   103   101   am
    52    18    17    1
    53    92    91    1
    54    48    51    1
    55    48    47    1
    56    51    52    1
    57    79    76    1
    58    63    60    1
    59    60    61    1
    60    13    14    1
    61    17    14    1
    62   101   100    1
    63   101   102    2
    64   100    99    1
    65    95    96    1
    66    91    90    1
    67    26    28    1
    68    26    25    1
    69    14    15    1
    70    89    88    2
    71    76    75    1
    72    76    77    1
    73    75    73   am
    74    61    62    2
    75    90    87    1
    76    88    87    1
    77    96    99    1
    78    96    97    1
    79    21    15   am
    80    21    22    1
    81    15    16    2
    82    25    22    1
    83    25    27    1
    84    72    73    1
    85    72    71    1
    86    73    74    2
    87    71    66   am
    88    87    86    1
    89    77    78    2
    90    70    68    1
    91    22    23    1
    92    97    98    2
    93    24    23    2
    94    64    65    1
    95    66    65    1
    96    66    67    2
    97    68    65    1
    98    68    69    1
