@<TRIPOS>MOLECULE
tmp/2i62A00.pdb
 219 213 0 0 0
SMALL
GASTEIGER

@<TRIPOS>ATOM
      1  N         12.8120   23.1130   19.8090 N.3     4  LYS4       -0.1245
      2  CA        12.8850   23.3780   18.3620 C.3     4  LYS4        0.1561
      3  C         13.3680   24.7970   18.0610 C.2     4  LYS4        0.2260
      4  O         13.9930   25.0450   17.0280 O.2     4  LYS4       -0.2867
      5  CB        11.5740   23.0300   17.6340 C.3     4  LYS4        0.0271
      6  CG        10.3610   23.8630   17.9850 C.3     4  LYS4        0.0035
      7  CD         9.1270   23.1810   17.4540 C.3     4  LYS4        0.0206
      8  CE         7.8770   23.8480   17.9430 C.3     4  LYS4        0.1093
      9  NZ         6.6750   23.0030   17.6570 N.3     4  LYS4       -0.1314
     10  N         17.1710   25.0970   17.6200 N.3     7  TYR7       -0.1241
     11  CA        17.6080   24.8620   16.2460 C.3     7  TYR7        0.1605
     12  C         17.7400   26.1760   15.4680 C.2     7  TYR7        0.2264
     13  O         18.7700   26.4330   14.8370 O.2     7  TYR7       -0.2867
     14  CB        16.6960   23.8480   15.5340 C.3     7  TYR7        0.0534
     15  CG        17.1050   22.4270   15.8580 C.ar    7  TYR7       -0.0201
     16  CD1       16.5780   21.7690   16.9600 C.ar    7  TYR7       -0.0009
     17  CD2       18.0610   21.7670   15.0810 C.ar    7  TYR7       -0.0009
     18  CE1       16.9850   20.4850   17.2730 C.ar    7  TYR7        0.0417
     19  CE2       18.4600   20.4860   15.3710 C.ar    7  TYR7        0.0417
     20  CZ        17.9250   19.8450   16.4720 C.ar    7  TYR7        0.1957
     21  OH        18.3380   18.5590   16.7600 O.3     7  TYR7       -0.2866
     22  N         21.5800   25.8500   15.3910 N.3    11  PHE11      -0.1241
     23  CA        21.9700   24.9100   14.3430 C.3    11  PHE11       0.1605
     24  C         22.7580   25.6040   13.2310 C.2    11  PHE11       0.2264
     25  O         22.2230   26.4760   12.5360 O.2    11  PHE11      -0.2867
     26  CB        20.7440   24.1770   13.7720 C.3    11  PHE11       0.0534
     27  CG        21.0870   22.9060   13.0310 C.ar   11  PHE11      -0.0203
     28  CD1       21.0560   21.6750   13.6810 C.ar   11  PHE11      -0.0042
     29  CD2       21.4380   22.9370   11.6780 C.ar   11  PHE11      -0.0042
     30  CE1       21.3670   20.4960   13.0060 C.ar   11  PHE11      -0.0003
     31  CE2       21.7490   21.7580   11.0010 C.ar   11  PHE11      -0.0003
     32  CZ        21.7100   20.5410   11.6690 C.ar   11  PHE11      -0.0000
     33  N         27.5980   21.6890   10.4470 N.3    16  TYR16      -0.1241
     34  CA        26.9740   20.3680   10.3660 C.3    16  TYR16       0.1605
     35  C         27.4900   19.5970    9.1380 C.2    16  TYR16       0.2264
     36  O         27.9120   18.4390    9.2520 O.2    16  TYR16      -0.2867
     37  CB        25.4380   20.4930   10.3700 C.3    16  TYR16       0.0534
     38  CG        24.7270   19.1530   10.2730 C.ar   16  TYR16      -0.0201
     39  CD1       24.6660   18.3020   11.3820 C.ar   16  TYR16      -0.0009
     40  CD2       24.1390   18.7260    9.0750 C.ar   16  TYR16      -0.0009
     41  CE1       24.0320   17.0670   11.3220 C.ar   16  TYR16       0.0417
     42  CE2       23.4920   17.4760    8.9970 C.ar   16  TYR16       0.0417
     43  CZ        23.4490   16.6520   10.1360 C.ar   16  TYR16       0.1957
     44  OH        22.8350   15.4190   10.1120 O.3    16  TYR16      -0.2866
     45  N         29.3980   15.4440    6.5440 N.3    21  TYR21      -0.1241
     46  CA        29.1980   15.1660    5.1100 C.3    21  TYR21       0.1605
     47  C         30.3040   15.6140    4.1530 C.2    21  TYR21       0.2264
     48  O         30.0610   15.7790    2.9600 O.2    21  TYR21      -0.2867
     49  CB        27.8140   15.7000    4.6690 C.3    21  TYR21       0.0534
     50  CG        26.7200   15.0130    5.4250 C.ar   21  TYR21      -0.0201
     51  CD1       26.4210   13.6810    5.1670 C.ar   21  TYR21      -0.0009
     52  CD2       26.0110   15.6690    6.4270 C.ar   21  TYR21      -0.0009
     53  CE1       25.4390   13.0320    5.8790 C.ar   21  TYR21       0.0417
     54  CE2       25.0450   15.0160    7.1510 C.ar   21  TYR21       0.0417
     55  CZ        24.7600   13.6920    6.8570 C.ar   21  TYR21       0.1957
     56  OH        23.7850   13.0270    7.5640 O.3    21  TYR21      -0.2866
     57  N         10.5550   14.6460    1.5890 N.3    57  ASP57      -0.1239
     58  CA        11.6380   14.5140    2.5620 C.3    57  ASP57       0.1674
     59  C         11.3590   15.4480    3.7340 C.2    57  ASP57       0.2266
     60  O         11.2060   16.6580    3.5500 O.2    57  ASP57      -0.2867
     61  CB        12.9830   14.8840    1.9340 C.3    57  ASP57       0.1410
     62  CG        14.1660   14.5400    2.8310 C.2    57  ASP57       0.3668
     63  OD1       14.0770   13.5910    3.6610 O.co2  57  ASP57      -0.2456
     64  OD2       15.2060   15.2170    2.7050 O.co2  57  ASP57      -0.2456
     65  N         12.4760   16.9700    7.4410 N.3    59  GLY59      -0.1210
     66  CA        13.6840   17.2440    8.2000 C.3    59  GLY59       0.1956
     67  C         14.9430   17.0120    7.4070 C.2    59  GLY59       0.2613
     68  O         15.9140   16.3720    7.9000 O.2    59  GLY59      -0.2717
     69  N         14.9450   17.5480    6.1860 N.am   60  SER60      -0.1938
     70  CA        16.0450   17.3970    5.2350 C.3    60  SER60       0.2055
     71  C         17.3440   18.0020    5.7460 C.2    60  SER60       0.2644
     72  O         18.4370   17.5810    5.3420 O.2    60  SER60      -0.2714
     73  CB        15.7110   18.0690    3.8860 C.3    60  SER60       0.2130
     74  OG        14.3770   17.8320    3.4610 O.3    60  SER60      -0.2179
     75  N         17.2280   18.9950    6.6240 N.am   61  GLY61      -0.1940
     76  CA        18.3820   19.8040    7.0080 C.3    61  GLY61       0.1999
     77  C         18.9590   20.4910    5.7770 C.2    61  GLY61       0.2481
     78  O         18.2180   20.8480    4.8590 O.2    61  GLY61      -0.2729
     79  N         20.2810   20.6860    5.7640 N.am   62  PRO62      -0.2715
     80  CA        21.0040   21.2550    4.6540 C.3    62  PRO62       0.1536
     81  C         21.5730   20.2060    3.7080 C.2    62  PRO62       0.2599
     82  O         22.4780   20.5340    2.9200 O.2    62  PRO62      -0.2715
     83  CB        22.1530   21.9730    5.3620 C.3    62  PRO62       0.0310
     84  CG        22.5180   21.0000    6.4610 C.3    62  PRO62       0.0237
     85  CD        21.1740   20.4410    6.9220 C.3    62  PRO62       0.0939
     86  N         21.0300   18.9800    3.7560 N.am   63  THR63      -0.1951
     87  CA        21.6010   17.8480    3.0110 C.3    63  THR63       0.1897
     88  C         20.7450   17.2970    1.8640 C.2    63  THR63       0.2313
     89  O         19.5030   17.3160    1.8950 O.2    63  THR63      -0.2863
     90  CB        22.0450   16.6410    3.9110 C.3    63  THR63       0.1794
     91  OG1       20.9090   15.8410    4.2450 O.3    63  THR63      -0.2208
     92  CG2       22.8210   17.0970    5.1840 C.3    63  THR63       0.0378
     93  N         22.1860   14.1820    0.3340 N.3    65  TYR65      -0.1227
     94  CA        22.7220   12.8120    0.1720 C.3    65  TYR65       0.1736
     95  C         21.6010   11.7820    0.1530 C.2    65  TYR65       0.2595
     96  O         21.7040   10.7760   -0.5500 O.2    65  TYR65      -0.2718
     97  CB        23.7710   12.4210    1.2480 C.3    65  TYR65       0.0548
     98  CG        23.1400   12.0410    2.5720 C.ar   65  TYR65      -0.0200
     99  CD1       22.8210   10.7120    2.8540 C.ar   65  TYR65      -0.0009
    100  CD2       22.8000   13.0130    3.5020 C.ar   65  TYR65      -0.0009
    101  CE1       22.1940   10.3490    4.0600 C.ar   65  TYR65       0.0417
    102  CE2       22.2060   12.6690    4.7070 C.ar   65  TYR65       0.0417
    103  CZ        21.9020   11.3390    4.9790 C.ar   65  TYR65       0.1957
    104  OH        21.2720   10.9680    6.1410 O.3    65  TYR65      -0.2866
    105  N         20.5550   12.0420    0.9360 N.am   66  GLN66      -0.1979
    106  CA        19.4150   11.1140    1.1140 C.3    66  GLN66       0.1601
    107  C         18.4680   11.0940   -0.1000 C.2    66  GLN66       0.2287
    108  O         17.5310   10.3090   -0.1450 O.2    66  GLN66      -0.2864
    109  CB        18.6460   11.4320    2.4290 C.3    66  GLN66       0.0394
    110  CG        17.7780   12.6870    2.3910 C.3    66  GLN66       0.0908
    111  CD        18.5500   13.9640    2.7350 C.2    66  GLN66       0.2608
    112  OE1       19.7740   14.0400    2.5890 O.2    66  GLN66      -0.2717
    113  NE2       17.8290   14.9640    3.2080 N.am   66  GLN66      -0.0878
    114  N         12.2240   21.4350    6.1570 N.3    81  ASP81      -0.1225
    115  CA        12.9640   21.4740    7.4240 C.3    81  ASP81       0.1805
    116  C         12.3630   22.4990    8.3560 C.2    81  ASP81       0.2598
    117  O         11.6310   23.4020    7.9490 O.2    81  ASP81      -0.2718
    118  CB        14.4730   21.7140    7.1960 C.3    81  ASP81       0.1424
    119  CG        15.3350   21.2900    8.3950 C.2    81  ASP81       0.3668
    120  OD1       15.3690   20.0900    8.7280 O.co2  81  ASP81      -0.2456
    121  OD2       15.9900   22.1700    9.0030 O.co2  81  ASP81      -0.2456
    122  N         12.6470   22.3460    9.6380 N.am   82  TYR82      -0.1962
    123  CA        12.1440   23.3080   10.5890 C.3    82  TYR82       0.1771
    124  C         12.9290   24.6080   10.5370 C.2    82  TYR82       0.2620
    125  O         12.3790   25.6710   10.7720 O.2    82  TYR82      -0.2715
    126  CB        12.1400   22.7350   11.9950 C.3    82  TYR82       0.0574
    127  CG        11.4970   23.6780   12.9560 C.ar   82  TYR82      -0.0198
    128  CD1       10.1240   23.8090   12.9970 C.ar   82  TYR82      -0.0009
    129  CD2       12.2810   24.4730   13.8170 C.ar   82  TYR82      -0.0009
    130  CE1        9.5150   24.6940   13.8990 C.ar   82  TYR82       0.0417
    131  CE2       11.6840   25.3550   14.7120 C.ar   82  TYR82       0.0417
    132  CZ        10.2960   25.4580   14.7350 C.ar   82  TYR82       0.1957
    133  OH         9.6850   26.3340   15.5910 O.3    82  TYR82      -0.2866
    134  N         14.2030   24.5010   10.2000 N.am   83  THR83      -0.1951
    135  CA        15.1580   25.5780   10.3280 C.3    83  THR83       0.1897
    136  C         15.3170   26.3160    9.0210 C.2    83  THR83       0.2313
    137  O         15.8380   25.7630    8.0570 O.2    83  THR83      -0.2863
    138  CB        16.5460   25.0290   10.7200 C.3    83  THR83       0.1794
    139  OG1       16.4150   24.0730   11.7870 O.3    83  THR83      -0.2208
    140  CG2       17.4090   26.1440   11.2000 C.3    83  THR83       0.0378
    141  N         18.7320   26.1240    7.1980 N.3    86  ASN86      -0.1240
    142  CA        18.9750   24.8810    6.4820 C.3    86  ASN86       0.1653
    143  C         18.3560   24.9540    5.1000 C.2    86  ASN86       0.2266
    144  O         18.9910   24.5760    4.1130 O.2    86  ASN86      -0.2867
    145  CB        18.4120   23.6980    7.2530 C.3    86  ASN86       0.1155
    146  CG        19.3200   23.2520    8.3610 C.2    86  ASN86       0.2627
    147  OD1       20.5360   23.4460    8.3070 O.2    86  ASN86      -0.2716
    148  ND2       18.7430   22.6330    9.3700 N.am   86  ASN86      -0.0877
    149  N          8.8210   22.7890    7.6120 N.3   137  CYS137     -0.1221
    150  CA         8.0140   21.7210    8.1870 C.3   137  CYS137      0.1808
    151  C          8.1790   21.7170    9.7030 C.2   137  CYS137      0.2601
    152  O          9.1630   22.2420   10.2260 O.2   137  CYS137     -0.2717
    153  CB         8.3800   20.3440    7.5990 C.3   137  CYS137      0.0970
    154  SG         9.9620   19.7130    8.1480 S.3   137  CYS137     -0.0800
    155  N          7.2010   21.1440   10.3860 N.am  138  ASP138     -0.1959
    156  CA         7.2780   20.8970   11.8360 C.3   138  ASP138      0.1840
    157  C          6.5690   19.5790   12.1450 C.2   138  ASP138      0.2622
    158  O          5.3350   19.4830   12.0950 O.2   138  ASP138     -0.2715
    159  CB         6.6670   22.0760   12.6530 C.3   138  ASP138      0.1450
    160  CG         6.8060   21.8930   14.1820 C.2   138  ASP138      0.3671
    161  OD1        7.2370   20.8110   14.6650 O.co2 138  ASP138     -0.2456
    162  OD2        6.4640   22.8460   14.9140 O.co2 138  ASP138     -0.2456
    163  N          7.3560   18.5520   12.4660 N.am  139  VAL139     -0.1963
    164  CA         6.7970   17.2130   12.6760 C.3   139  VAL139      0.1727
    165  C          5.8180   17.0890   13.8640 C.2   139  VAL139      0.2616
    166  O          4.9700   16.1890   13.8780 O.2   139  VAL139     -0.2715
    167  CB         7.9200   16.1460   12.7980 C.3   139  VAL139      0.0290
    168  CG1        8.7460   16.1510   11.5820 C.3   139  VAL139      0.0023
    169  CG2        8.7980   16.3850   14.0260 C.3   139  VAL139      0.0023
    170  N          5.9210   18.0240   14.8080 N.am  140  THR140     -0.1951
    171  CA         5.1110   18.0430   16.0350 C.3   140  THR140      0.1897
    172  C          3.6920   18.4970   15.7690 C.2   140  THR140      0.2313
    173  O          2.8120   18.3580   16.6370 O.2   140  THR140     -0.2863
    174  CB         5.7170   18.9720   17.1070 C.3   140  THR140      0.1794
    175  OG1        5.7740   20.3250   16.6350 O.3   140  THR140     -0.2208
    176  CG2        7.1220   18.5330   17.5030 C.3   140  THR140      0.0378
    177  N         15.4130   11.2320    7.3180 N.3   159  THR159     -0.1203
    178  CA        16.7400   10.7640    7.7260 C.3   159  THR159      0.1994
    179  C         17.3090   11.5770    8.8990 C.2   159  THR159      0.2618
    180  O         17.4240   12.8040    8.8040 O.2   159  THR159     -0.2717
    181  CB        17.7340   10.7030    6.5250 C.3   159  THR159      0.1784
    182  OG1       17.9340   12.0190    5.9680 O.3   159  THR159     -0.2211
    183  CG2       17.1720    9.7840    5.4240 C.3   159  THR159      0.0376
    184  N         17.5950   10.8870   10.0070 N.am  160  LEU160     -0.1965
    185  CA        18.2570   11.4940   11.1930 C.3   160  LEU160      0.1728
    186  C         17.5210   12.7220   11.7280 C.2   160  LEU160      0.2616
    187  O         18.1430   13.6830   12.2150 O.2   160  LEU160     -0.2715
    188  CB        19.7330   11.8190   10.8770 C.3   160  LEU160      0.0311
    189  CG        20.7040   10.6910   10.4660 C.3   160  LEU160      0.0022
    190  CD1       21.9890   11.2040    9.8510 C.3   160  LEU160      0.0001
    191  CD2       21.0380    9.8130   11.6720 C.3   160  LEU160      0.0001
    192  N         16.1900   12.6710   11.6740 N.am  161  CYS161     -0.1968
    193  CA        15.3440   13.7840   12.0800 C.3   161  CYS161      0.1712
    194  C         14.5040   13.4650   13.3130 C.2   161  CYS161      0.2296
    195  O         14.5350   14.2100   14.2820 O.2   161  CYS161     -0.2864
    196  CB        14.4040   14.1970   10.9380 C.3   161  CYS161      0.0983
    197  SG        13.1150   15.4240   11.4380 S.3   161  CYS161     -0.0798
    198  N         15.9350   13.4160   16.7860 N.3   164  ALA164     -0.1231
    199  CA        16.3250   14.7580   17.1990 C.3   164  ALA164      0.1694
    200  C         15.1010   15.5890   17.6060 C.2   164  ALA164      0.2591
    201  O         15.1820   16.3490   18.5720 O.2   164  ALA164     -0.2718
    202  CB        17.1400   15.4630   16.1090 C.3   164  ALA164      0.0304
    203  N         13.9710   15.3980   16.9170 N.am  165  ALA165     -0.1980
    204  CA        12.7830   16.2580   17.0560 C.3   165  ALA165      0.1597
    205  C         11.8030   15.8760   18.1600 C.2   165  ALA165      0.2287
    206  O         10.8490   16.6250   18.4280 O.2   165  ALA165     -0.2864
    207  CB        12.0330   16.3520   15.7390 C.3   165  ALA165      0.0319
    208  N         23.8940   14.4970   19.8320 N.3   200  TYR200     -0.1241
    209  CA        24.9130   14.6110   18.8140 C.3   200  TYR200      0.1605
    210  C         25.5150   16.0150   18.9070 C.2   200  TYR200      0.2264
    211  O         24.8370   16.9610   19.3190 O.2   200  TYR200     -0.2867
    212  CB        24.3710   14.2860   17.4100 C.3   200  TYR200      0.0534
    213  CG        23.3300   15.2440   16.8860 C.ar  200  TYR200     -0.0201
    214  CD1       23.6870   16.2740   16.0250 C.ar  200  TYR200     -0.0009
    215  CD2       21.9940   15.1210   17.2550 C.ar  200  TYR200     -0.0009
    216  CE1       22.7460   17.1650   15.5470 C.ar  200  TYR200      0.0417
    217  CE2       21.0310   15.9990   16.7760 C.ar  200  TYR200      0.0417
    218  CZ        21.4190   17.0250   15.9260 C.ar  200  TYR200      0.1957
    219  OH        20.4890   17.9110   15.4370 O.3   200  TYR200     -0.2866
@<TRIPOS>BOND
     1    96    95    2
     2   108   107    2
     3   107   106    1
     4    95    94    1
     5    95   105   am
     6    94    93    1
     7    94    97    1
     8   105   106    1
     9   106   109    1
    10    97    98    1
    11    57    58    1
    12    88    89    2
    13    88    87    1
    14    61    58    1
    15    61    62    1
    16   110   109    1
    17   110   111    1
    18    58    59    1
    19    98    99   ar
    20    98   100   ar
    21   112   111    2
    22    64    62   ar
    23   111   113   am
    24    62    63   ar
    25    99   101   ar
    26    82    81    2
    27    48    47    2
    28    87    86    1
    29    87    90    1
    30    74    73    1
    31   100   102   ar
    32    60    59    2
    33    81    86   am
    34    81    80    1
    35    73    70    1
    36    90    91    1
    37    90    92    1
    38   101   103   ar
    39   144   143    2
    40    47    46    1
    41    80    83    1
    42    80    79    1
    43    49    46    1
    44    49    50    1
    45   102   103   ar
    46    78    77    2
    47   103   104    1
    48   143   142    1
    49    46    45    1
    50    51    50   ar
    51    51    53   ar
    52    70    71    1
    53    70    69    1
    54    72    71    2
    55    83    84    1
    56   183   181    1
    57    50    52   ar
    58    71    75   am
    59    79    77   am
    60    79    85    1
    61    77    76    1
    62    53    55   ar
    63   182   181    1
    64   114   115    1
    65    69    67   am
    66    52    54   ar
    67    84    85    1
    68   142   141    1
    69   142   145    1
    70   181   178    1
    71    75    76    1
    72    55    54   ar
    73    55    56    1
    74   118   115    1
    75   118   119    1
    76   145   146    1
    77   177   178    1
    78    67    68    2
    79    67    66    1
    80   115   116    1
    81    65    66    1
    82   153   154    1
    83   153   150    1
    84   149   150    1
    85   178   179    1
    86   117   116    2
    87   137   136    2
    88   150   151    1
    89   147   146    2
    90   116   122   am
    91   146   148   am
    92   119   120   ar
    93   119   121   ar
    94   180   179    2
    95   179   184   am
    96    42    40   ar
    97    42    43   ar
    98   136   135    1
    99    40    38   ar
   100    35    36    2
   101    35    34    1
   102   122   123    1
   103   151   152    2
   104   151   155   am
   105   190   189    1
   106   184   185    1
   107    44    43    1
   108    43    41   ar
   109   134   135    1
   110   134   124   am
   111    38    37    1
   112    38    39   ar
   113   135   138    1
   114    34    37    1
   115    34    33    1
   116   155   156    1
   117   189   188    1
   118   189   191    1
   119   124   123    1
   120   124   125    2
   121   123   126    1
   122   138   140    1
   123   138   139    1
   124   188   185    1
   125   196   197    1
   126   196   193    1
   127    31    32   ar
   128    31    29   ar
   129   185   186    1
   130    41    39   ar
   131   168   167    1
   132    32    30   ar
   133   192   186   am
   134   192   193    1
   135    29    27   ar
   136   186   187    2
   137   156   157    1
   138   156   159    1
   139   126   127    1
   140   193   194    1
   141   158   157    2
   142   157   163   am
   143   163   164    1
   144    25    24    2
   145   159   160    1
   146   164   167    1
   147   164   165    1
   148   167   169    1
   149   127   128   ar
   150   127   129   ar
   151   128   130   ar
   152    30    28   ar
   153    27    28   ar
   154    27    26    1
   155    24    23    1
   156   194   195    2
   157    26    23    1
   158   129   131   ar
   159   165   166    2
   160   165   170   am
   161   130   132   ar
   162   160   161   ar
   163   160   162   ar
   164    23    22    1
   165   131   132   ar
   166   132   133    1
   167   170   171    1
   168    13    12    2
   169    17    19   ar
   170    17    15   ar
   171    19    20   ar
   172   219   218    1
   173    12    11    1
   174    14    15    1
   175    14    11    1
   176   216   218   ar
   177   216   214   ar
   178   207   204    1
   179   172   171    1
   180   172   173    2
   181    15    16   ar
   182   218   217   ar
   183   214   213   ar
   184   171   174    1
   185   202   199    1
   186    11    10    1
   187    20    21    1
   188    20    18   ar
   189   175   174    1
   190   217   215   ar
   191   198   199    1
   192   213   215   ar
   193   213   212    1
   194   203   204    1
   195   203   200   am
   196    16    18   ar
   197     4     3    2
   198   204   205    1
   199   174   176    1
   200   199   200    1
   201   212   209    1
   202     7     8    1
   203     7     6    1
   204   200   201    2
   205     5     6    1
   206     5     2    1
   207     9     8    1
   208     3     2    1
   209   205   206    2
   210     2     1    1
   211   209   210    1
   212   209   208    1
   213   210   211    2
