@<TRIPOS>MOLECULE
tmp/2i65B00.pdb
 178 175 0 0 0
SMALL
GASTEIGER

@<TRIPOS>ATOM
      1  N         18.7730    8.9510  -38.7690 N.3    79  LEU79      -0.1231
      2  CA        19.2480    7.6780  -38.2470 C.3    79  LEU79       0.1693
      3  C         18.8900    7.5580  -36.7600 C.2    79  LEU79       0.2592
      4  O         19.3850    8.3090  -35.9210 O.2    79  LEU79      -0.2718
      5  CB        20.7540    7.5300  -38.4610 C.3    79  LEU79       0.0284
      6  CG        21.3980    6.2490  -37.9120 C.3    79  LEU79       0.0019
      7  CD1       20.8340    4.9900  -38.5790 C.3    79  LEU79       0.0001
      8  CD2       22.8950    6.2920  -38.0810 C.3    79  LEU79       0.0001
      9  N         18.0080    6.6140  -36.4620 N.am   80  LEU80      -0.1966
     10  CA        17.6830    6.2580  -35.0920 C.3    80  LEU80       0.1728
     11  C         18.6270    5.1390  -34.7120 C.2    80  LEU80       0.2616
     12  O         19.2560    4.5180  -35.5800 O.2    80  LEU80      -0.2715
     13  CB        16.2220    5.7930  -34.9670 C.3    80  LEU80       0.0311
     14  CG        15.1810    6.7480  -35.5670 C.3    80  LEU80       0.0022
     15  CD1       13.7990    6.2130  -35.3360 C.3    80  LEU80       0.0001
     16  CD2       15.3420    8.1550  -34.9930 C.3    80  LEU80       0.0001
     17  N         18.7450    4.8910  -33.4120 N.am   81  TRP81      -0.1960
     18  CA        19.6070    3.8180  -32.9430 C.3    81  TRP81       0.1771
     19  C         19.0690    3.2830  -31.6220 C.2    81  TRP81       0.2620
     20  O         18.2320    3.9110  -30.9990 O.2    81  TRP81      -0.2715
     21  CB        21.0670    4.2830  -32.7990 C.3    81  TRP81       0.0590
     22  CG        21.2660    5.4800  -31.8950 C.ar   81  TRP81       0.0006
     23  CD1       21.3410    6.7930  -32.2800 C.ar   81  TRP81       0.0946
     24  CD2       21.4160    5.4730  -30.4610 C.ar   81  TRP81       0.0152
     25  NE1       21.5120    7.6020  -31.1780 N.ar   81  TRP81      -0.2442
     26  CE2       21.5680    6.8190  -30.0520 C.ar   81  TRP81       0.0810
     27  CE3       21.4360    4.4620  -29.4870 C.ar   81  TRP81       0.0012
     28  CZ2       21.7360    7.1860  -28.7060 C.ar   81  TRP81       0.0191
     29  CZ3       21.6040    4.8310  -28.1370 C.ar   81  TRP81       0.0001
     30  CH2       21.7420    6.1840  -27.7690 C.ar   81  TRP81       0.0015
     31  N         19.5200    2.0990  -31.2360 N.am   82  SER82      -0.1936
     32  CA        19.2110    1.5620  -29.9220 C.3    82  SER82       0.2055
     33  C         20.3840    0.6990  -29.5170 C.2    82  SER82       0.2642
     34  O         20.7410   -0.2410  -30.2320 O.2    82  SER82      -0.2714
     35  CB        17.9190    0.7460  -29.9520 C.3    82  SER82       0.2130
     36  OG        17.4230    0.5040  -28.6460 O.3    82  SER82      -0.2179
     37  N         21.0010    1.0560  -28.3900 N.am   83  ARG83      -0.1977
     38  CA        22.0450    0.2450  -27.7520 C.3    83  ARG83       0.1597
     39  C         23.3760    0.2470  -28.4880 C.2    83  ARG83       0.2287
     40  O         24.2680   -0.5170  -28.1250 O.2    83  ARG83      -0.2864
     41  CB        21.5800   -1.2110  -27.5500 C.3    83  ARG83       0.0334
     42  CG        20.1910   -1.3860  -26.9360 C.3    83  ARG83       0.0492
     43  CD        20.1630   -0.9840  -25.4770 C.3    83  ARG83       0.2205
     44  NE        18.8050   -0.7180  -24.9940 N.pl3  83  ARG83      -0.0865
     45  CZ        17.9690   -1.6480  -24.5370 C.cat  83  ARG83       0.5346
     46  NH1       18.3270   -2.9290  -24.5070 N.pl3  83  ARG83       0.1354
     47  NH2       16.7670   -1.2960  -24.1080 N.pl3  83  ARG83       0.1354
     48  N         25.0540    3.5160  -29.7960 N.3    85  LYS85      -0.1245
     49  CA        25.1890    4.9440  -30.0850 C.3    85  LYS85       0.1561
     50  C         26.5120    5.3170  -30.7420 C.2    85  LYS85       0.2260
     51  O         26.5540    6.2210  -31.5730 O.2    85  LYS85      -0.2867
     52  CB        24.9700    5.7950  -28.8240 C.3    85  LYS85       0.0271
     53  CG        25.9590    5.5510  -27.6920 C.3    85  LYS85       0.0035
     54  CD        25.6050    6.3650  -26.4520 C.3    85  LYS85       0.0206
     55  CE        25.7930    7.8610  -26.6610 C.3    85  LYS85       0.1093
     56  NZ        25.4440    8.5890  -25.4080 N.3    85  LYS85      -0.1314
     57  N         19.8530   11.8850  -33.4610 N.3   101  LEU101     -0.1231
     58  CA        19.3770   12.9160  -32.5520 C.3   101  LEU101      0.1693
     59  C         20.5280   13.7290  -31.9330 C.2   101  LEU101      0.2591
     60  O         20.4150   14.9290  -31.7240 O.2   101  LEU101     -0.2718
     61  CB        18.4970   12.2790  -31.4660 C.3   101  LEU101      0.0284
     62  CG        17.9880   13.1670  -30.3270 C.3   101  LEU101      0.0019
     63  CD1       17.1610   14.3200  -30.8600 C.3   101  LEU101      0.0001
     64  CD2       17.1810   12.3350  -29.3620 C.3   101  LEU101      0.0001
     65  N         21.6500   13.0740  -31.6700 N.am  102  GLU102     -0.1979
     66  CA        22.7690   13.7470  -31.0100 C.3   102  GLU102      0.1602
     67  C         23.5850   14.5880  -31.9870 C.2   102  GLU102      0.2287
     68  O         24.5330   15.2640  -31.5820 O.2   102  GLU102     -0.2864
     69  CB        23.6720   12.7250  -30.2930 C.3   102  GLU102      0.0415
     70  CG        22.9570   11.8470  -29.2520 C.3   102  GLU102      0.1163
     71  CD        21.9620   10.8570  -29.8420 C.2   102  GLU102      0.3649
     72  OE1       22.2300   10.2370  -30.8980 O.co2 102  GLU102     -0.2457
     73  OE2       20.8970   10.6830  -29.2280 O.co2 102  GLU102     -0.2457
     74  N         24.0930   14.8820  -24.7340 N.3   111  ASP111     -0.1225
     75  CA        24.5670   13.5000  -24.9160 C.3   111  ASP111      0.1805
     76  C         25.6190   13.1100  -23.8760 C.2   111  ASP111      0.2597
     77  O         26.5790   13.8460  -23.6590 O.2   111  ASP111     -0.2718
     78  CB        25.1190   13.2760  -26.3390 C.3   111  ASP111      0.1424
     79  CG        25.2910   11.8050  -26.6760 C.2   111  ASP111      0.3668
     80  OD1       26.0950   11.4980  -27.5750 O.co2 111  ASP111     -0.2456
     81  OD2       24.6180   10.9490  -26.0600 O.co2 111  ASP111     -0.2456
     82  N         25.4230   11.9460  -23.2490 N.am  112  ASP112     -0.1974
     83  CA        26.3180   11.4070  -22.2110 C.3   112  ASP112      0.1709
     84  C         26.2890   12.1700  -20.8840 C.2   112  ASP112      0.2293
     85  O         27.0790   11.8770  -19.9860 O.2   112  ASP112     -0.2864
     86  CB        27.7680   11.3020  -22.6890 C.3   112  ASP112      0.1436
     87  CG        27.9520   10.2770  -23.7870 C.2   112  ASP112      0.3671
     88  OD1       27.3500    9.1820  -23.7120 O.co2 112  ASP112     -0.2456
     89  OD2       28.7150   10.5740  -24.7250 O.co2 112  ASP112     -0.2456
     90  N         16.2770    5.8400  -13.5000 N.3   132  TRP132     -0.1241
     91  CA        14.9290    5.7460  -14.0680 C.3   132  TRP132      0.1605
     92  C         14.1740    4.4570  -13.7360 C.2   132  TRP132      0.2264
     93  O         12.9450    4.4490  -13.6600 O.2   132  TRP132     -0.2867
     94  CB        14.9250    6.0310  -15.5730 C.3   132  TRP132      0.0550
     95  CG        15.3960    4.9390  -16.4590 C.ar  132  TRP132      0.0003
     96  CD1       16.6830    4.7040  -16.8510 C.ar  132  TRP132      0.0946
     97  CD2       14.5860    3.9450  -17.1160 C.ar  132  TRP132      0.0152
     98  NE1       16.7290    3.6210  -17.6990 N.ar  132  TRP132     -0.2442
     99  CE2       15.4580    3.1360  -17.8790 C.ar  132  TRP132      0.0810
    100  CE3       13.2090    3.6600  -17.1290 C.ar  132  TRP132      0.0012
    101  CZ2       14.9990    2.0580  -18.6620 C.ar  132  TRP132      0.0191
    102  CZ3       12.7480    2.5840  -17.9080 C.ar  132  TRP132      0.0001
    103  CH2       13.6470    1.7960  -18.6590 C.ar  132  TRP132      0.0015
    104  N         15.0820   13.2130  -22.7970 N.3   145  TRP145     -0.1241
    105  CA        15.3200   12.3020  -23.9180 C.3   145  TRP145      0.1605
    106  C         14.0370   11.7620  -24.5210 C.2   145  TRP145      0.2264
    107  O         13.9600   11.6250  -25.7300 O.2   145  TRP145     -0.2867
    108  CB        16.2670   11.1700  -23.5530 C.3   145  TRP145      0.0550
    109  CG        17.6890   11.6540  -23.3870 C.ar  145  TRP145      0.0003
    110  CD1       18.4160   11.6690  -22.2310 C.ar  145  TRP145      0.0946
    111  CD2       18.5440   12.1930  -24.4080 C.ar  145  TRP145      0.0152
    112  NE1       19.6620   12.1910  -22.4620 N.ar  145  TRP145     -0.2442
    113  CE2       19.7680   12.5270  -23.7890 C.ar  145  TRP145      0.0810
    114  CE3       18.3920   12.4290  -25.7870 C.ar  145  TRP145      0.0012
    115  CZ2       20.8430   13.0720  -24.5010 C.ar  145  TRP145      0.0191
    116  CZ3       19.4490   12.9800  -26.4910 C.ar  145  TRP145      0.0001
    117  CH2       20.6660   13.2910  -25.8490 C.ar  145  TRP145      0.0015
    118  N         13.3980   12.7340  -28.3700 N.3   149  SER149     -0.1217
    119  CA        13.3830   11.4950  -29.1410 C.3   149  SER149      0.1889
    120  C         12.0700   11.3240  -29.8790 C.2   149  SER149      0.2288
    121  O         12.0560   10.9660  -31.0680 O.2   149  SER149     -0.2866
    122  CB        13.6440   10.3020  -28.2410 C.3   149  SER149      0.2089
    123  OG        14.9770   10.3570  -27.7590 O.3   149  SER149     -0.2183
    124  N         11.9480   13.9430  -32.6600 N.3   152  PHE152     -0.1241
    125  CA        12.8370   13.5270  -33.7480 C.3   152  PHE152      0.1605
    126  C         12.1780   12.4640  -34.6360 C.2   152  PHE152      0.2264
    127  O         12.2000   12.5690  -35.8590 O.2   152  PHE152     -0.2867
    128  CB        14.1500   12.9990  -33.1660 C.3   152  PHE152      0.0534
    129  CG        15.3040   13.0480  -34.1150 C.ar  152  PHE152     -0.0203
    130  CD1       15.7000   14.2540  -34.7020 C.ar  152  PHE152     -0.0042
    131  CD2       16.0250   11.8960  -34.3940 C.ar  152  PHE152     -0.0042
    132  CE1       16.7830   14.3000  -35.5740 C.ar  152  PHE152     -0.0003
    133  CE2       17.1060   11.9310  -35.2550 C.ar  152  PHE152     -0.0003
    134  CZ        17.4890   13.1390  -35.8490 C.ar  152  PHE152     -0.0000
    135  N         23.0180   -7.9890  -28.5490 N.3   168  ARG168     -0.1245
    136  CA        22.2200   -7.7940  -27.4120 C.3   168  ARG168      0.1563
    137  C         21.2060   -8.8890  -27.4860 C.2   168  ARG168      0.2260
    138  O         20.3730   -8.9260  -28.3900 O.2   168  ARG168     -0.2867
    139  CB        21.7220   -6.3490  -27.3480 C.3   168  ARG168      0.0307
    140  CG        22.7820   -5.3470  -26.9230 C.3   168  ARG168      0.0489
    141  CD        22.7190   -5.0760  -25.4300 C.3   168  ARG168      0.2205
    142  NE        23.7320   -4.1140  -25.0050 N.pl3 168  ARG168     -0.0865
    143  CZ        23.8930   -3.7040  -23.7520 C.cat 168  ARG168      0.5346
    144  NH1       23.1050   -4.1730  -22.7960 N.pl3 168  ARG168      0.1354
    145  NH2       24.8410   -2.8260  -23.4590 N.pl3 168  ARG168      0.1354
    146  N         12.8040    0.0810  -24.8530 N.3   176  SER176     -0.1202
    147  CA        13.8430    1.1090  -25.0440 C.3   176  SER176      0.2020
    148  C         13.1880    2.4130  -25.4910 C.2   176  SER176      0.2619
    149  O         11.9920    2.4300  -25.7840 O.2   176  SER176     -0.2717
    150  CB        14.8780    0.6620  -26.0840 C.3   176  SER176      0.2103
    151  OG        14.3340    0.6950  -27.3970 O.3   176  SER176     -0.2182
    152  N         13.9520    3.4990  -25.5510 N.am  177  THR177     -0.1938
    153  CA        13.3880    4.7620  -26.0330 C.3   177  THR177      0.2028
    154  C         13.0590    4.6290  -27.5110 C.2   177  THR177      0.2642
    155  O         12.0370    5.1210  -27.9630 O.2   177  THR177     -0.2714
    156  CB        14.3220    5.9570  -25.8440 C.3   177  THR177      0.1808
    157  OG1       14.8910    5.9130  -24.5310 O.3   177  THR177     -0.2208
    158  CG2       13.5540    7.2790  -26.0260 C.3   177  THR177      0.0379
    159  N         13.9250    3.9560  -28.2620 N.am  178  PHE178     -0.1973
    160  CA        13.5800    3.6920  -29.6490 C.3   178  PHE178      0.1639
    161  C         12.2800    2.9090  -29.7020 C.2   178  PHE178      0.2290
    162  O         11.3390    3.3230  -30.3710 O.2   178  PHE178     -0.2864
    163  CB        14.6750    2.9510  -30.4050 C.3   178  PHE178      0.0560
    164  CG        14.2110    2.4280  -31.7360 C.ar  178  PHE178     -0.0200
    165  CD1       13.8310    3.3070  -32.7390 C.ar  178  PHE178     -0.0042
    166  CD2       14.1250    1.0590  -31.9700 C.ar  178  PHE178     -0.0042
    167  CE1       13.3790    2.8300  -33.9770 C.ar  178  PHE178     -0.0003
    168  CE2       13.6820    0.5670  -33.2060 C.ar  178  PHE178     -0.0003
    169  CZ        13.3080    1.4560  -34.2040 C.ar  178  PHE178     -0.0000
    170  N          9.9760    6.1290  -29.9970 N.3   182  GLN182     -0.1245
    171  CA        10.2890    6.4690  -31.3780 C.3   182  GLN182      0.1566
    172  C          9.5170    5.6560  -32.4120 C.2   182  GLN182      0.2260
    173  O          8.9120    6.2440  -33.3110 O.2   182  GLN182     -0.2867
    174  CB        11.7980    6.4610  -31.6250 C.3   182  GLN182      0.0367
    175  CG        12.4910    7.5730  -30.8880 C.3   182  GLN182      0.0905
    176  CD        13.9340    7.7060  -31.2450 C.2   182  GLN182      0.2608
    177  OE1       14.6640    6.7190  -31.3120 O.2   182  GLN182     -0.2717
    178  NE2       14.3680    8.9380  -31.4740 N.am  182  GLN182     -0.0878
@<TRIPOS>BOND
     1     1     2    1
     2     7     6    1
     3     5     2    1
     4     5     6    1
     5     2     3    1
     6     8     6    1
     7     3     9   am
     8     3     4    2
     9     9    10    1
    10   127   126    2
    11   134   132   ar
    12   134   133   ar
    13    12    11    2
    14   132   130   ar
    15    14    15    1
    16    14    16    1
    17    14    13    1
    18   133   131   ar
    19    10    13    1
    20    10    11    1
    21    11    17   am
    22   130   129   ar
    23   126   125    1
    24   131   129   ar
    25   169   167   ar
    26   169   168   ar
    27   129   128    1
    28   167   165   ar
    29   125   128    1
    30   125   124    1
    31    57    58    1
    32    17    18    1
    33   173   172    2
    34   168   166   ar
    35    18    21    1
    36    18    19    1
    37    21    22    1
    38   165   164   ar
    39    58    59    1
    40    58    61    1
    41   172   171    1
    42    23    22   ar
    43    23    25   ar
    44    67    68    2
    45    67    66    1
    46   166   164   ar
    47    59    60    2
    48    59    65   am
    49    22    24   ar
    50   164   163    1
    51    65    66    1
    52   174   171    1
    53   174   175    1
    54    19    31   am
    55    19    20    2
    56    51    50    2
    57   178   176   am
    58    61    62    1
    59   171   170    1
    60   177   176    2
    61   176   175    1
    62    31    32    1
    63    25    26   ar
    64   121   120    2
    65    66    69    1
    66    72    71   ar
    67    63    62    1
    68    50    49    1
    69    24    26   ar
    70    24    27   ar
    71   163   160    1
    72   162   161    2
    73    62    64    1
    74    69    70    1
    75    34    33    2
    76    49    48    1
    77    49    52    1
    78    26    28   ar
    79    35    32    1
    80    35    36    1
    81    32    33    1
    82   120   119    1
    83    71    70    1
    84    71    73   ar
    85   161   160    1
    86   160   159    1
    87    33    37   am
    88    27    29   ar
    89   119   118    1
    90   119   122    1
    91    52    53    1
    92    28    30   ar
    93   135   136    1
    94    39    40    2
    95    39    38    1
    96   138   137    2
    97    37    38    1
    98   159   154   am
    99   122   123    1
   100    29    30   ar
   101   155   154    2
   102    38    41    1
   103    53    54    1
   104    80    79   ar
   105    41    42    1
   106   154   153    1
   107   137   136    1
   108   136   139    1
   109   151   150    1
   110   139   140    1
   111    42    43    1
   112   140   141    1
   113    79    78    1
   114    79    81   ar
   115    55    54    1
   116    55    56    1
   117   116   117   ar
   118   116   114   ar
   119    78    75    1
   120   150   147    1
   121   153   156    1
   122   153   152    1
   123   158   156    1
   124   117   115   ar
   125   156   157    1
   126   114   111   ar
   127   149   148    2
   128   107   106    2
   129   152   148   am
   130   148   147    1
   131    43    44    1
   132   141   142    1
   133   147   146    1
   134   142   143    2
   135    44    45    2
   136    75    74    1
   137    75    76    1
   138    89    87   ar
   139    45    46    1
   140    45    47    1
   141   106   105    1
   142   115   113   ar
   143   111   113   ar
   144   111   109   ar
   145   105   108    1
   146   105   104    1
   147    76    77    2
   148    76    82   am
   149   113   112   ar
   150    87    88   ar
   151    87    86    1
   152   143   145    1
   153   143   144    1
   154   108   109    1
   155   109   110   ar
   156    82    83    1
   157    86    83    1
   158   112   110   ar
   159    83    84    1
   160    84    85    2
   161   101   103   ar
   162   101    99   ar
   163   103   102   ar
   164   102   100   ar
   165    99    98   ar
   166    99    97   ar
   167    98    96   ar
   168   100    97   ar
   169    97    95   ar
   170    96    95   ar
   171    95    94    1
   172    94    91    1
   173    91    92    1
   174    91    90    1
   175    92    93    2
