@<TRIPOS>MOLECULE
tmp/2i66B00.pdb
 143 137 0 0 0
SMALL
GASTEIGER

@<TRIPOS>ATOM
      1  N         19.6110    2.4900  -33.4500 N.3    81  TRP81      -0.1241
      2  CA        20.5300    1.5000  -32.9000 C.3    81  TRP81       0.1605
      3  C         20.0270    1.0590  -31.5200 C.2    81  TRP81       0.2264
      4  O         19.2500    1.7500  -30.8700 O.2    81  TRP81      -0.2867
      5  CB        21.9810    2.0510  -32.8380 C.3    81  TRP81       0.0550
      6  CG        22.0710    3.3620  -32.0640 C.ar   81  TRP81       0.0003
      7  CD1       22.0260    4.6220  -32.5790 C.ar   81  TRP81       0.0946
      8  CD2       22.1750    3.5120  -30.6300 C.ar   81  TRP81       0.0152
      9  NE1       22.1090    5.5720  -31.5440 N.ar   81  TRP81      -0.2442
     10  CE2       22.2090    4.8950  -30.3550 C.ar   81  TRP81       0.0810
     11  CE3       22.2560    2.5930  -29.5580 C.ar   81  TRP81       0.0012
     12  CZ2       22.2820    5.3940  -29.0470 C.ar   81  TRP81       0.0191
     13  CZ3       22.3370    3.0930  -28.2610 C.ar   81  TRP81       0.0001
     14  CH2       22.3580    4.4770  -28.0290 C.ar   81  TRP81       0.0015
     15  N         21.9090   -0.7390  -28.0890 N.3    83  ARG83      -0.1231
     16  CA        23.0660   -1.3320  -27.3920 C.3    83  ARG83       0.1694
     17  C         24.3410   -1.4160  -28.2260 C.2    83  ARG83       0.2592
     18  O         25.2020   -2.2770  -27.9670 O.2    83  ARG83      -0.2718
     19  CB        22.7010   -2.7280  -26.8400 C.3    83  ARG83       0.0321
     20  CG        21.7110   -2.6610  -25.6810 C.3    83  ARG83       0.0489
     21  CD        22.4580   -2.7360  -24.3770 C.3    83  ARG83       0.2205
     22  NE        22.0350   -1.7400  -23.3960 N.pl3  83  ARG83      -0.0865
     23  CZ        21.5110   -2.0230  -22.2050 C.cat  83  ARG83       0.5346
     24  NH1       21.3290   -3.2830  -21.8150 N.pl3  83  ARG83       0.1354
     25  NH2       21.1630   -1.0330  -21.3960 N.pl3  83  ARG83       0.1354
     26  N         24.4650   -0.5580  -29.2450 N.am   84  ILE84      -0.1966
     27  CA        25.6510   -0.5820  -30.1060 C.3    84  ILE84       0.1727
     28  C         25.9320    0.8090  -30.6860 C.2    84  ILE84       0.2616
     29  O         26.3030    0.9950  -31.8640 O.2    84  ILE84      -0.2715
     30  CB        25.5700   -1.7350  -31.1690 C.3    84  ILE84       0.0290
     31  CG1       26.8790   -1.8680  -31.9560 C.3    84  ILE84       0.0022
     32  CG2       24.3300   -1.5860  -32.0440 C.3    84  ILE84       0.0023
     33  CD1       27.1960   -3.2830  -32.3650 C.3    84  ILE84       0.0001
     34  N         25.7860    1.7800  -29.7940 N.am   85  LYS85      -0.1963
     35  CA        25.9310    3.1790  -30.1270 C.3    85  LYS85       0.1728
     36  C         27.2790    3.4740  -30.7490 C.2    85  LYS85       0.2616
     37  O         27.3570    4.2520  -31.6900 O.2    85  LYS85      -0.2715
     38  CB        25.7190    4.0240  -28.8480 C.3    85  LYS85       0.0311
     39  CG        25.6780    5.5070  -29.1110 C.3    85  LYS85       0.0038
     40  CD        25.2940    6.2790  -27.8410 C.3    85  LYS85       0.0206
     41  CE        26.3690    6.2390  -26.7960 C.3    85  LYS85       0.1093
     42  NZ        25.8800    7.0370  -25.6300 N.3    85  LYS85      -0.1314
     43  N         28.3480    2.8730  -30.2290 N.am   86  ASP86      -0.1971
     44  CA        29.6880    3.2320  -30.7010 C.3    86  ASP86       0.1709
     45  C         29.9050    2.8870  -32.1720 C.2    86  ASP86       0.2293
     46  O         30.4030    3.7150  -32.9360 O.2    86  ASP86      -0.2864
     47  CB        30.7990    2.6540  -29.7990 C.3    86  ASP86       0.1436
     48  CG        31.0840    3.5460  -28.5620 C.2    86  ASP86       0.3671
     49  OD1       30.4900    4.6440  -28.4230 O.co2  86  ASP86      -0.2456
     50  OD2       31.9180    3.1420  -27.7090 O.co2  86  ASP86      -0.2456
     51  N         20.3570    9.5310  -34.0500 N.3   101  LEU101     -0.1231
     52  CA        19.7550   10.5770  -33.1890 C.3   101  LEU101      0.1693
     53  C         20.8210   11.5450  -32.6500 C.2   101  LEU101      0.2591
     54  O         20.6060   12.7450  -32.5510 O.2   101  LEU101     -0.2718
     55  CB        18.9530    9.9030  -32.0990 C.3   101  LEU101      0.0284
     56  CG        18.2970   10.8300  -31.0420 C.3   101  LEU101      0.0019
     57  CD1       17.3090   11.8350  -31.6850 C.3   101  LEU101      0.0001
     58  CD2       17.6020    9.9910  -29.9500 C.3   101  LEU101      0.0001
     59  N         21.9830   10.9940  -32.3390 N.am  102  GLU102     -0.1979
     60  CA        23.0750   11.7930  -31.8110 C.3   102  GLU102      0.1602
     61  C         23.7980   12.6330  -32.8510 C.2   102  GLU102      0.2287
     62  O         24.6750   13.4050  -32.4950 O.2   102  GLU102     -0.2864
     63  CB        24.0520   10.8830  -31.0610 C.3   102  GLU102      0.0415
     64  CG        23.4020   10.1500  -29.8890 C.3   102  GLU102      0.1163
     65  CD        22.5050    9.0020  -30.3040 C.2   102  GLU102      0.3649
     66  OE1       22.7680    8.4000  -31.3610 O.co2 102  GLU102     -0.2457
     67  OE2       21.5610    8.6900  -29.5600 O.co2 102  GLU102     -0.2457
     68  N         24.1140   13.4120  -25.4220 N.3   111  ASP111     -0.1225
     69  CA        24.7020   12.0520  -25.4170 C.3   111  ASP111      0.1805
     70  C         25.7310   11.8680  -24.3100 C.2   111  ASP111      0.2597
     71  O         26.5930   12.7050  -24.1390 O.2   111  ASP111     -0.2718
     72  CB        25.4130   11.8390  -26.7350 C.3   111  ASP111      0.1424
     73  CG        25.7390   10.3800  -27.0060 C.2   111  ASP111      0.3668
     74  OD1       26.6450   10.1630  -27.8410 O.co2 111  ASP111     -0.2456
     75  OD2       25.0890    9.4860  -26.4490 O.co2 111  ASP111     -0.2456
     76  N         25.5910   10.7710  -23.5810 N.am  112  ASP112     -0.1974
     77  CA        26.4990   10.3450  -22.5220 C.3   112  ASP112      0.1709
     78  C         26.4470   11.2590  -21.2860 C.2   112  ASP112      0.2293
     79  O         27.3160   11.1050  -20.4150 O.2   112  ASP112     -0.2864
     80  CB        27.9520   10.2330  -22.9930 C.3   112  ASP112      0.1436
     81  CG        28.2050    8.9950  -23.9000 C.2   112  ASP112      0.3671
     82  OD1       27.5300    7.9650  -23.7320 O.co2 112  ASP112     -0.2456
     83  OD2       29.1180    9.0690  -24.7310 O.co2 112  ASP112     -0.2456
     84  N         16.4850   12.7110  -17.4720 N.3   141  VAL141     -0.1231
     85  CA        17.2250   12.1040  -18.5770 C.3   141  VAL141      0.1692
     86  C         16.3080   11.1440  -19.3270 C.2   141  VAL141      0.2592
     87  O         16.2830   11.1560  -20.5790 O.2   141  VAL141     -0.2718
     88  CB        18.4510   11.3430  -18.0560 C.3   141  VAL141      0.0266
     89  CG1       19.0620   10.4750  -19.1500 C.3   141  VAL141      0.0020
     90  CG2       19.5090   12.3030  -17.5570 C.3   141  VAL141      0.0020
     91  N         15.5690   10.3000  -18.6070 N.am  142  SER142     -0.1952
     92  CA        14.6860    9.3050  -19.3060 C.3   142  SER142      0.1924
     93  C         13.6210    9.9710  -20.1710 C.2   142  SER142      0.2314
     94  O         13.3350    9.5330  -21.2940 O.2   142  SER142     -0.2863
     95  CB        14.0380    8.3530  -18.2740 C.3   142  SER142      0.2116
     96  OG        15.0360    7.5590  -17.6380 O.3   142  SER142     -0.2180
     97  N         15.0690   11.4760  -23.4040 N.3   145  TRP145     -0.1241
     98  CA        15.3460   10.5070  -24.5150 C.3   145  TRP145      0.1605
     99  C         14.0630    9.9580  -25.1130 C.2   145  TRP145      0.2264
    100  O         13.9850    9.7370  -26.3400 O.2   145  TRP145     -0.2867
    101  CB        16.3090    9.3960  -24.0930 C.3   145  TRP145      0.0550
    102  CG        17.6860    9.9150  -23.9160 C.ar  145  TRP145      0.0003
    103  CD1       18.3700   10.0380  -22.7260 C.ar  145  TRP145      0.0946
    104  CD2       18.5490   10.4490  -24.9260 C.ar  145  TRP145      0.0152
    105  NE1       19.6320   10.5800  -22.9460 N.ar  145  TRP145     -0.2442
    106  CE2       19.7590   10.8510  -24.2900 C.ar  145  TRP145      0.0810
    107  CE3       18.4290   10.6140  -26.3200 C.ar  145  TRP145      0.0012
    108  CZ2       20.8360   11.4200  -25.0000 C.ar  145  TRP145      0.0191
    109  CZ3       19.5010   11.1870  -27.0250 C.ar  145  TRP145      0.0001
    110  CH2       20.6890   11.5720  -26.3850 C.ar  145  TRP145      0.0015
    111  N         13.5160   10.7840  -29.0160 N.3   149  SER149     -0.1217
    112  CA        13.5170    9.5840  -29.8980 C.3   149  SER149      0.1889
    113  C         12.1580    9.3520  -30.5370 C.2   149  SER149      0.2288
    114  O         12.0940    8.8930  -31.7100 O.2   149  SER149     -0.2866
    115  CB        14.0140    8.3700  -29.1390 C.3   149  SER149      0.2089
    116  OG        13.0330    7.9720  -28.2280 O.3   149  SER149     -0.2183
    117  N         24.3560  -10.0010  -27.6850 N.3   168  ARG168     -0.1245
    118  CA        23.6080   -9.7040  -26.4670 C.3   168  ARG168      0.1563
    119  C         22.7780  -10.9010  -25.9910 C.2   168  ARG168      0.2260
    120  O         22.5180  -11.0420  -24.7970 O.2   168  ARG168     -0.2867
    121  CB        22.6980   -8.4680  -26.6530 C.3   168  ARG168      0.0307
    122  CG        23.3940   -7.1010  -26.5830 C.3   168  ARG168      0.0489
    123  CD        24.0960   -6.8780  -25.2470 C.3   168  ARG168      0.2205
    124  NE        25.0940   -5.8040  -25.2960 N.pl3 168  ARG168     -0.0865
    125  CZ        25.2130   -4.8260  -24.3950 C.cat 168  ARG168      0.5346
    126  NH1       24.4050   -4.7650  -23.3450 N.pl3 168  ARG168      0.1354
    127  NH2       26.1610   -3.9080  -24.5360 N.pl3 168  ARG168      0.1354
    128  N         15.0960    1.9150  -25.7060 N.3   177  THR177     -0.1218
    129  CA        14.4570    3.0870  -26.3000 C.3   177  THR177      0.1862
    130  C         14.0280    2.7290  -27.7260 C.2   177  THR177      0.2287
    131  O         12.9640    3.1360  -28.1590 O.2   177  THR177     -0.2866
    132  CB        15.3600    4.3220  -26.3060 C.3   177  THR177      0.1770
    133  OG1       15.6620    4.7360  -24.9480 O.3   177  THR177     -0.2211
    134  CG2       14.6890    5.4610  -27.0570 C.3   177  THR177      0.0375
    135  N         10.7920    3.7920  -30.3030 N.3   182  GLU182     -0.1245
    136  CA        11.0420    4.0210  -31.7290 C.3   182  GLU182      0.1567
    137  C         10.2660    3.1060  -32.6730 C.2   182  GLU182      0.2260
    138  O          9.6120    3.5820  -33.6070 O.2   182  GLU182     -0.2867
    139  CB        12.5420    4.0410  -32.0470 C.3   182  GLU182      0.0388
    140  CG        13.2370    5.2300  -31.3450 C.3   182  GLU182      0.1160
    141  CD        14.7270    5.2720  -31.5400 C.2   182  GLU182      0.3649
    142  OE1       15.3600    4.2070  -31.6580 O.co2 182  GLU182     -0.2457
    143  OE2       15.2920    6.3870  -31.5590 O.co2 182  GLU182     -0.2457
@<TRIPOS>BOND
     1    51    52    1
     2   138   137    2
     3     1     2    1
     4    52    53    1
     5    52    55    1
     6    46    45    2
     7     2     5    1
     8     2     3    1
     9    61    62    2
    10    61    60    1
    11     5     6    1
    12   137   136    1
    13    53    54    2
    14    53    59   am
    15     7     6   ar
    16     7     9   ar
    17    33    31    1
    18    59    60    1
    19    45    44    1
    20    55    56    1
    21     6     8   ar
    22   139   136    1
    23   139   140    1
    24    32    30    1
    25    31    30    1
    26    29    28    2
    27    60    63    1
    28   136   135    1
    29   114   113    2
    30    37    36    2
    31    57    56    1
    32   142   141   ar
    33   143   141   ar
    34     9    10   ar
    35   141   140    1
    36     3     4    2
    37    66    65   ar
    38    30    27    1
    39    63    64    1
    40    56    58    1
    41    36    43   am
    42    36    35    1
    43    44    43    1
    44    44    47    1
    45    28    27    1
    46    28    34   am
    47     8    10   ar
    48     8    11   ar
    49   113   112    1
    50    10    12   ar
    51    65    64    1
    52    65    67   ar
    53    35    34    1
    54    35    38    1
    55    27    26    1
    56   112   115    1
    57   112   111    1
    58    47    48    1
    59    11    13   ar
    60    26    17   am
    61   115   116    1
    62    39    38    1
    63    39    40    1
    64    12    14   ar
    65    48    49   ar
    66    48    50   ar
    67    13    14   ar
    68    17    18    2
    69    17    16    1
    70   131   130    2
    71    15    16    1
    72    74    73   ar
    73    40    41    1
    74   130   129    1
    75   117   118    1
    76    16    19    1
    77   134   132    1
    78   109   110   ar
    79   109   107   ar
    80    73    72    1
    81    73    75   ar
    82    19    20    1
    83    41    42    1
    84    72    69    1
    85   121   122    1
    86   121   118    1
    87   122   123    1
    88   118   119    1
    89   110   108   ar
    90   100    99    2
    91   107   104   ar
    92   132   129    1
    93   132   133    1
    94   129   128    1
    95   119   120    2
    96    20    21    1
    97    68    69    1
    98    69    70    1
    99   124   123    1
   100   124   125    2
   101    99    98    1
   102   108   106   ar
   103   104   106   ar
   104   104   102   ar
   105    83    81   ar
   106   127   125    1
   107    98   101    1
   108    98    97    1
   109   125   126    1
   110    21    22    1
   111    70    71    2
   112    70    76   am
   113   106   105   ar
   114   101   102    1
   115   102   103   ar
   116    81    82   ar
   117    81    80    1
   118    76    77    1
   119    22    23    2
   120    80    77    1
   121   105   103   ar
   122    77    78    1
   123    23    24    1
   124    23    25    1
   125    94    93    2
   126    78    79    2
   127    87    86    2
   128    93    92    1
   129    86    91   am
   130    86    85    1
   131    92    91    1
   132    92    95    1
   133    89    88    1
   134    85    88    1
   135    85    84    1
   136    95    96    1
   137    88    90    1
