@<TRIPOS>MOLECULE
tmp/2i66B01.pdb
 184 180 0 0 0
SMALL
GASTEIGER

@<TRIPOS>ATOM
      1  N         18.9200    3.8730  -36.7580 N.3    80  LEU80      -0.1231
      2  CA        18.5590    3.6430  -35.3620 C.3    80  LEU80       0.1693
      3  C         19.5400    2.6290  -34.7790 C.2    80  LEU80       0.2592
      4  O         20.2760    2.0000  -35.5020 O.2    80  LEU80      -0.2718
      5  CB        17.1100    3.1340  -35.2890 C.3    80  LEU80       0.0284
      6  CG        16.0310    4.0690  -35.8740 C.3    80  LEU80       0.0019
      7  CD1       14.6130    3.5810  -35.5700 C.3    80  LEU80       0.0001
      8  CD2       16.1890    5.4590  -35.2540 C.3    80  LEU80       0.0001
      9  N         19.6110    2.4900  -33.4500 N.am   81  TRP81      -0.1962
     10  CA        20.5300    1.5000  -32.9000 C.3    81  TRP81       0.1771
     11  C         20.0270    1.0590  -31.5200 C.2    81  TRP81       0.2620
     12  O         19.2500    1.7500  -30.8700 O.2    81  TRP81      -0.2715
     13  CB        21.9810    2.0510  -32.8380 C.3    81  TRP81       0.0590
     14  CG        22.0710    3.3620  -32.0640 C.ar   81  TRP81       0.0006
     15  CD1       22.0260    4.6220  -32.5790 C.ar   81  TRP81       0.0946
     16  CD2       22.1750    3.5120  -30.6300 C.ar   81  TRP81       0.0152
     17  NE1       22.1090    5.5720  -31.5440 N.ar   81  TRP81      -0.2442
     18  CE2       22.2090    4.8950  -30.3550 C.ar   81  TRP81       0.0810
     19  CE3       22.2560    2.5930  -29.5580 C.ar   81  TRP81       0.0012
     20  CZ2       22.2820    5.3940  -29.0470 C.ar   81  TRP81       0.0191
     21  CZ3       22.3370    3.0930  -28.2610 C.ar   81  TRP81       0.0001
     22  CH2       22.3580    4.4770  -28.0290 C.ar   81  TRP81       0.0015
     23  N         20.4500   -0.1230  -31.1000 N.am   82  SER82      -0.1936
     24  CA        20.1460   -0.5910  -29.7500 C.3    82  SER82       0.2055
     25  C         21.3760   -1.2840  -29.1820 C.2    82  SER82       0.2642
     26  O         21.8510   -2.2720  -29.7430 O.2    82  SER82      -0.2714
     27  CB        18.9280   -1.5440  -29.7730 C.3    82  SER82       0.2130
     28  OG        18.3070   -1.5460  -28.4690 O.3    82  SER82      -0.2179
     29  N         21.9090   -0.7390  -28.0890 N.am   83  ARG83      -0.1977
     30  CA        23.0660   -1.3320  -27.3920 C.3    83  ARG83       0.1597
     31  C         24.3410   -1.4160  -28.2260 C.2    83  ARG83       0.2287
     32  O         25.2020   -2.2770  -27.9670 O.2    83  ARG83      -0.2864
     33  CB        22.7010   -2.7280  -26.8400 C.3    83  ARG83       0.0334
     34  CG        21.7110   -2.6610  -25.6810 C.3    83  ARG83       0.0492
     35  CD        22.4580   -2.7360  -24.3770 C.3    83  ARG83       0.2205
     36  NE        22.0350   -1.7400  -23.3960 N.pl3  83  ARG83      -0.0865
     37  CZ        21.5110   -2.0230  -22.2050 C.cat  83  ARG83       0.5346
     38  NH1       21.3290   -3.2830  -21.8150 N.pl3  83  ARG83       0.1354
     39  NH2       21.1630   -1.0330  -21.3960 N.pl3  83  ARG83       0.1354
     40  N         20.3570    9.5310  -34.0500 N.3   101  LEU101     -0.1231
     41  CA        19.7550   10.5770  -33.1890 C.3   101  LEU101      0.1693
     42  C         20.8210   11.5450  -32.6500 C.2   101  LEU101      0.2591
     43  O         20.6060   12.7450  -32.5510 O.2   101  LEU101     -0.2718
     44  CB        18.9530    9.9030  -32.0990 C.3   101  LEU101      0.0284
     45  CG        18.2970   10.8300  -31.0420 C.3   101  LEU101      0.0019
     46  CD1       17.3090   11.8350  -31.6850 C.3   101  LEU101      0.0001
     47  CD2       17.6020    9.9910  -29.9500 C.3   101  LEU101      0.0001
     48  N         21.9830   10.9940  -32.3390 N.am  102  GLU102     -0.1979
     49  CA        23.0750   11.7930  -31.8110 C.3   102  GLU102      0.1602
     50  C         23.7980   12.6330  -32.8510 C.2   102  GLU102      0.2287
     51  O         24.6750   13.4050  -32.4950 O.2   102  GLU102     -0.2864
     52  CB        24.0520   10.8830  -31.0610 C.3   102  GLU102      0.0415
     53  CG        23.4020   10.1500  -29.8890 C.3   102  GLU102      0.1163
     54  CD        22.5050    9.0020  -30.3040 C.2   102  GLU102      0.3649
     55  OE1       22.7680    8.4000  -31.3610 O.co2 102  GLU102     -0.2457
     56  OE2       21.5610    8.6900  -29.5600 O.co2 102  GLU102     -0.2457
     57  N         16.3870    4.9560  -13.3470 N.3   132  TRP132     -0.1227
     58  CA        15.1300    4.7010  -14.0390 C.3   132  TRP132      0.1737
     59  C         14.3810    3.4970  -13.4790 C.2   132  TRP132      0.2595
     60  O         13.1610    3.5020  -13.4210 O.2   132  TRP132     -0.2718
     61  CB        15.4310    4.5260  -15.5380 C.3   132  TRP132      0.0564
     62  CG        14.2950    4.1340  -16.3650 C.ar  132  TRP132      0.0003
     63  CD1       13.2680    4.9310  -16.7850 C.ar  132  TRP132      0.0946
     64  CD2       14.0650    2.8400  -16.9360 C.ar  132  TRP132      0.0152
     65  NE1       12.3930    4.2010  -17.5630 N.ar  132  TRP132     -0.2442
     66  CE2       12.8610    2.9140  -17.6660 C.ar  132  TRP132      0.0810
     67  CE3       14.7560    1.6230  -16.8900 C.ar  132  TRP132      0.0012
     68  CZ2       12.3300    1.8090  -18.3470 C.ar  132  TRP132      0.0191
     69  CZ3       14.2250    0.5230  -17.5590 C.ar  132  TRP132      0.0001
     70  CH2       13.0230    0.6280  -18.2820 C.ar  132  TRP132      0.0015
     71  N         15.1060    2.4840  -13.0310 N.am  133  ARG133     -0.1980
     72  CA        14.4700    1.2720  -12.4900 C.3   133  ARG133      0.1597
     73  C         14.2410    1.3210  -10.9870 C.2   133  ARG133      0.2287
     74  O         13.1500    0.9670  -10.5020 O.2   133  ARG133     -0.2864
     75  CB        15.3010    0.0400  -12.8180 C.3   133  ARG133      0.0334
     76  CG        15.4440   -0.2490  -14.3260 C.3   133  ARG133      0.0492
     77  CD        15.7350   -1.7410  -14.5950 C.3   133  ARG133      0.2205
     78  NE        14.4980   -2.5170  -14.6890 N.pl3 133  ARG133     -0.0865
     79  CZ        13.8220   -2.9970  -13.6420 C.cat 133  ARG133      0.5346
     80  NH1       14.2600   -2.8010  -12.4020 N.pl3 133  ARG133      0.1354
     81  NH2       12.7000   -3.6730  -13.8290 N.pl3 133  ARG133      0.1354
     82  N         10.7240    6.4160  -13.2260 N.3   137  SER137     -0.1217
     83  CA        11.0290    6.5000  -14.6490 C.3   137  SER137      0.1889
     84  C         10.8480    7.8920  -15.2460 C.2   137  SER137      0.2288
     85  O         11.3400    8.1420  -16.3450 O.2   137  SER137     -0.2866
     86  CB        10.2190    5.4630  -15.4470 C.3   137  SER137      0.2089
     87  OG         8.8440    5.6290  -15.2500 O.3   137  SER137     -0.2183
     88  N         16.4850   12.7110  -17.4720 N.3   141  VAL141     -0.1231
     89  CA        17.2250   12.1040  -18.5770 C.3   141  VAL141      0.1692
     90  C         16.3080   11.1440  -19.3270 C.2   141  VAL141      0.2592
     91  O         16.2830   11.1560  -20.5790 O.2   141  VAL141     -0.2718
     92  CB        18.4510   11.3430  -18.0560 C.3   141  VAL141      0.0266
     93  CG1       19.0620   10.4750  -19.1500 C.3   141  VAL141      0.0020
     94  CG2       19.5090   12.3030  -17.5570 C.3   141  VAL141      0.0020
     95  N         15.5690   10.3000  -18.6070 N.am  142  SER142     -0.1952
     96  CA        14.6860    9.3050  -19.3060 C.3   142  SER142      0.1924
     97  C         13.6210    9.9710  -20.1710 C.2   142  SER142      0.2314
     98  O         13.3350    9.5330  -21.2940 O.2   142  SER142     -0.2863
     99  CB        14.0380    8.3530  -18.2740 C.3   142  SER142      0.2116
    100  OG        15.0360    7.5590  -17.6380 O.3   142  SER142     -0.2180
    101  N         15.0690   11.4760  -23.4040 N.3   145  TRP145     -0.1227
    102  CA        15.3460   10.5070  -24.5150 C.3   145  TRP145      0.1737
    103  C         14.0630    9.9580  -25.1130 C.2   145  TRP145      0.2595
    104  O         13.9850    9.7370  -26.3400 O.2   145  TRP145     -0.2718
    105  CB        16.3090    9.3960  -24.0930 C.3   145  TRP145      0.0564
    106  CG        17.6860    9.9150  -23.9160 C.ar  145  TRP145      0.0003
    107  CD1       18.3700   10.0380  -22.7260 C.ar  145  TRP145      0.0946
    108  CD2       18.5490   10.4490  -24.9260 C.ar  145  TRP145      0.0152
    109  NE1       19.6320   10.5800  -22.9460 N.ar  145  TRP145     -0.2442
    110  CE2       19.7590   10.8510  -24.2900 C.ar  145  TRP145      0.0810
    111  CE3       18.4290   10.6140  -26.3200 C.ar  145  TRP145      0.0012
    112  CZ2       20.8360   11.4200  -25.0000 C.ar  145  TRP145      0.0191
    113  CZ3       19.5010   11.1870  -27.0250 C.ar  145  TRP145      0.0001
    114  CH2       20.6890   11.5720  -26.3850 C.ar  145  TRP145      0.0015
    115  N         13.0520    9.7150  -24.2690 N.am  146  LYS146     -0.1980
    116  CA        11.7470    9.2140  -24.8010 C.3   146  LYS146      0.1596
    117  C         11.1350   10.2470  -25.7440 C.2   146  LYS146      0.2287
    118  O         10.5970    9.9040  -26.7970 O.2   146  LYS146     -0.2864
    119  CB        10.7860    8.9370  -23.6180 C.3   146  LYS146      0.0298
    120  CG         9.4340    8.2990  -24.0240 C.3   146  LYS146      0.0038
    121  CD         8.5100    8.2960  -22.7890 C.3   146  LYS146      0.0206
    122  CE         7.7740    6.9690  -22.6290 C.3   146  LYS146      0.1093
    123  NZ         6.6880    6.7400  -23.6190 N.3   146  LYS146     -0.1314
    124  N         13.5160   10.7840  -29.0160 N.3   149  SER149     -0.1217
    125  CA        13.5170    9.5840  -29.8980 C.3   149  SER149      0.1889
    126  C         12.1580    9.3520  -30.5370 C.2   149  SER149      0.2288
    127  O         12.0940    8.8930  -31.7100 O.2   149  SER149     -0.2866
    128  CB        14.0140    8.3700  -29.1390 C.3   149  SER149      0.2089
    129  OG        13.0330    7.9720  -28.2280 O.3   149  SER149     -0.2183
    130  N         15.4670   -6.0130  -27.7390 N.3   173  ASP173     -0.1239
    131  CA        15.0320   -5.8740  -26.3700 C.3   173  ASP173      0.1674
    132  C         13.8580   -4.9320  -26.3640 C.2   173  ASP173      0.2266
    133  O         13.9860   -3.7510  -26.6790 O.2   173  ASP173     -0.2867
    134  CB        16.1630   -5.2990  -25.5180 C.3   173  ASP173      0.1410
    135  CG        15.7310   -4.9790  -24.1100 C.2   173  ASP173      0.3668
    136  OD1       14.5510   -5.2230  -23.7500 O.co2 173  ASP173     -0.2456
    137  OD2       16.5800   -4.4590  -23.3560 O.co2 173  ASP173     -0.2456
    138  N         12.4400   -3.4780  -24.2480 N.3   175  ASP175     -0.1225
    139  CA        12.4880   -2.4810  -23.1870 C.3   175  ASP175      0.1805
    140  C         13.4540   -1.3320  -23.4700 C.2   175  ASP175      0.2598
    141  O         13.4600   -0.3350  -22.7410 O.2   175  ASP175     -0.2718
    142  CB        12.8050   -3.1550  -21.8370 C.3   175  ASP175      0.1424
    143  CG        11.7100   -4.1310  -21.3930 C.2   175  ASP175      0.3668
    144  OD1       10.5070   -3.7740  -21.4840 O.co2 175  ASP175     -0.2456
    145  OD2       12.0420   -5.2670  -20.9670 O.co2 175  ASP175     -0.2456
    146  N         14.2590   -1.4590  -24.5300 N.am  176  SER176     -0.1938
    147  CA        15.1800   -0.4080  -24.9410 C.3   176  SER176      0.2055
    148  C         14.4130    0.7900  -25.5190 C.2   176  SER176      0.2644
    149  O         13.2150    0.6910  -25.7810 O.2   176  SER176     -0.2714
    150  CB        16.1490   -0.9490  -25.9800 C.3   176  SER176      0.2130
    151  OG        15.4190   -1.4190  -27.1060 O.3   176  SER176     -0.2179
    152  N         15.0960    1.9150  -25.7060 N.am  177  THR177     -0.1936
    153  CA        14.4570    3.0870  -26.3000 C.3   177  THR177      0.2028
    154  C         14.0280    2.7290  -27.7260 C.2   177  THR177      0.2642
    155  O         12.9640    3.1360  -28.1590 O.2   177  THR177     -0.2714
    156  CB        15.3600    4.3220  -26.3060 C.3   177  THR177      0.1808
    157  OG1       15.6620    4.7360  -24.9480 O.3   177  THR177     -0.2208
    158  CG2       14.6890    5.4610  -27.0570 C.3   177  THR177      0.0379
    159  N         14.8440    1.9480  -28.4170 N.am  178  PHE178     -0.1973
    160  CA        14.4770    1.4750  -29.7460 C.3   178  PHE178      0.1639
    161  C         13.2030    0.6400  -29.6730 C.2   178  PHE178      0.2290
    162  O         12.2440    0.9060  -30.3960 O.2   178  PHE178     -0.2864
    163  CB        15.5920    0.6660  -30.4130 C.3   178  PHE178      0.0560
    164  CG        15.1410    0.0150  -31.7050 C.ar  178  PHE178     -0.0200
    165  CD1       14.8620    0.8050  -32.8180 C.ar  178  PHE178     -0.0042
    166  CD2       14.9360   -1.3670  -31.7910 C.ar  178  PHE178     -0.0042
    167  CE1       14.3900    0.2320  -34.0150 C.ar  178  PHE178     -0.0003
    168  CE2       14.4920   -1.9450  -32.9620 C.ar  178  PHE178     -0.0003
    169  CZ        14.2090   -1.1450  -34.0910 C.ar  178  PHE178     -0.0000
    170  N         10.8000    0.1950  -27.3750 N.3   180  SER180     -0.1217
    171  CA         9.6450    0.6990  -26.6290 C.3   180  SER180      0.1889
    172  C          9.0720    2.0440  -27.1130 C.2   180  SER180      0.2288
    173  O          7.8750    2.3270  -26.9190 O.2   180  SER180     -0.2866
    174  CB         9.9950    0.8010  -25.1500 C.3   180  SER180      0.2089
    175  OG        10.9750    1.8120  -24.9170 O.3   180  SER180     -0.2183
    176  N         10.7920    3.7920  -30.3030 N.3   182  GLU182     -0.1245
    177  CA        11.0420    4.0210  -31.7290 C.3   182  GLU182      0.1567
    178  C         10.2660    3.1060  -32.6730 C.2   182  GLU182      0.2260
    179  O          9.6120    3.5820  -33.6070 O.2   182  GLU182     -0.2867
    180  CB        12.5420    4.0410  -32.0470 C.3   182  GLU182      0.0388
    181  CG        13.2370    5.2300  -31.3450 C.3   182  GLU182      0.1160
    182  CD        14.7270    5.2720  -31.5400 C.2   182  GLU182      0.3649
    183  OE1       15.3600    4.2070  -31.6580 O.co2 182  GLU182     -0.2457
    184  OE2       15.2920    6.3870  -31.5590 O.co2 182  GLU182     -0.2457
@<TRIPOS>BOND
     1     1     2    1
     2     6     7    1
     3     6     5    1
     4     6     8    1
     5     4     3    2
     6     2     5    1
     7     2     3    1
     8     3     9   am
     9   169   167   ar
    10   169   168   ar
    11    40    41    1
    12   167   165   ar
    13   179   178    2
    14     9    10    1
    15    41    42    1
    16    41    44    1
    17   168   166   ar
    18    10    13    1
    19    10    11    1
    20    50    51    2
    21    50    49    1
    22    13    14    1
    23   165   164   ar
    24   178   177    1
    25    42    43    2
    26    42    48   am
    27    15    14   ar
    28    15    17   ar
    29    48    49    1
    30    44    45    1
    31    14    16   ar
    32   180   177    1
    33   180   181    1
    34    49    52    1
    35   166   164   ar
    36   177   176    1
    37   127   126    2
    38   164   163    1
    39    46    45    1
    40   183   182   ar
    41   184   182   ar
    42    17    18   ar
    43   182   181    1
    44    11    23   am
    45    11    12    2
    46    55    54   ar
    47    23    24    1
    48    52    53    1
    49    45    47    1
    50    16    18   ar
    51    16    19   ar
    52   126   125    1
    53   163   160    1
    54   162   161    2
    55    18    20   ar
    56    54    53    1
    57    54    56   ar
    58   125   128    1
    59   125   124    1
    60    27    24    1
    61    27    28    1
    62    24    25    1
    63   160   161    1
    64   160   159    1
    65    26    25    2
    66    19    21   ar
    67    25    29   am
    68   128   129    1
    69    20    22   ar
    70   159   154   am
    71    21    22   ar
    72    31    32    2
    73    31    30    1
    74   155   154    2
    75    29    30    1
    76   130   131    1
    77   154   153    1
    78    30    33    1
    79   170   171    1
    80   172   173    2
    81   172   171    1
    82   151   150    1
    83   158   156    1
    84   113   114   ar
    85   113   111   ar
    86    33    34    1
    87   118   117    2
    88   133   132    2
    89   171   174    1
    90   114   112   ar
    91   131   132    1
    92   131   134    1
    93   104   103    2
    94   111   108   ar
    95   156   153    1
    96   156   157    1
    97   153   152    1
    98   150   147    1
    99   149   148    2
   100   117   116    1
   101   152   148   am
   102    34    35    1
   103   148   147    1
   104   134   135    1
   105   174   175    1
   106   103   102    1
   107   103   115   am
   108   112   110   ar
   109   147   146    1
   110   108   110   ar
   111   108   106   ar
   112   116   115    1
   113   116   119    1
   114   146   140   am
   115   102   105    1
   116   102   101    1
   117    35    36    1
   118   110   109   ar
   119   138   139    1
   120   135   136   ar
   121   135   137   ar
   122   105   106    1
   123   120   119    1
   124   120   121    1
   125   106   107   ar
   126   123   122    1
   127   140   139    1
   128   140   141    2
   129    36    37    2
   130   139   142    1
   131   109   107   ar
   132   121   122    1
   133    37    38    1
   134    37    39    1
   135   142   143    1
   136   144   143   ar
   137   143   145   ar
   138    98    97    2
   139    91    90    2
   140    97    96    1
   141    90    95   am
   142    90    89    1
   143    96    95    1
   144    96    99    1
   145    93    92    1
   146    89    92    1
   147    89    88    1
   148    68    70   ar
   149    68    66   ar
   150    70    69   ar
   151    99   100    1
   152    92    94    1
   153    66    65   ar
   154    66    64   ar
   155    65    63   ar
   156    69    67   ar
   157    64    67   ar
   158    64    62   ar
   159    63    62   ar
   160    62    61    1
   161    85    84    2
   162    61    58    1
   163    86    87    1
   164    86    83    1
   165    84    83    1
   166    78    77    1
   167    78    79    2
   168    83    82    1
   169    77    76    1
   170    76    75    1
   171    58    59    1
   172    58    57    1
   173    81    79    1
   174    79    80    1
   175    59    60    2
   176    59    71   am
   177    71    72    1
   178    75    72    1
   179    72    73    1
   180    73    74    2
