@<TRIPOS>MOLECULE
tmp/2i6aA00.pdb
 167 152 0 0 0
SMALL
GASTEIGER

@<TRIPOS>ATOM
      1  N         10.4440  -22.6800   13.9970 N.3    12  ASN12      -0.1240
      2  CA         8.9860  -22.7350   14.0920 C.3    12  ASN12       0.1653
      3  C          8.2980  -21.3650   13.9900 C.2    12  ASN12       0.2266
      4  O          8.1200  -20.6760   14.9850 O.2    12  ASN12      -0.2867
      5  CB         8.5790  -23.3960   15.4180 C.3    12  ASN12       0.1155
      6  CG         9.1530  -24.7930   15.5790 C.2    12  ASN12       0.2627
      7  OD1        9.1720  -25.5950   14.6320 O.2    12  ASN12      -0.2716
      8  ND2        9.7550  -25.0350   16.7360 N.am   12  ASN12      -0.0877
      9  N          5.7380  -19.1680   14.6750 N.3    14  LEU14      -0.1245
     10  CA         4.5410  -19.1610   15.5410 C.3    14  LEU14       0.1561
     11  C          3.9170  -17.7760   15.7590 C.2    14  LEU14       0.2260
     12  O          4.6070  -16.7640   15.6240 O.2    14  LEU14      -0.2867
     13  CB         4.8880  -19.7490   16.9170 C.3    14  LEU14       0.0270
     14  CG         5.5160  -21.1460   17.0160 C.3    14  LEU14       0.0019
     15  CD1        5.5670  -21.5260   18.4520 C.3    14  LEU14       0.0001
     16  CD2        4.7160  -22.2140   16.2070 C.3    14  LEU14       0.0001
     17  N          2.2430  -15.5590   18.7100 N.3    16  ASP16      -0.1239
     18  CA         2.0620  -15.5130   20.1470 C.3    16  ASP16       0.1674
     19  C          0.7150  -14.9530   20.5660 C.2    16  ASP16       0.2266
     20  O          0.3250  -13.8460   20.1830 O.2    16  ASP16      -0.2867
     21  CB         3.2110  -14.7330   20.7940 C.3    16  ASP16       0.1410
     22  CG         4.5960  -15.2660   20.4070 C.2    16  ASP16       0.3668
     23  OD1        4.7560  -16.4750   20.1270 O.co2  16  ASP16      -0.2456
     24  OD2        5.5430  -14.4630   20.3730 O.co2  16  ASP16      -0.2456
     25  N          8.0000  -23.1800   29.8140 N.3    36  GLN36      -0.1231
     26  CA         7.8310  -23.2880   28.3760 C.3    36  GLN36       0.1698
     27  C          7.6180  -24.7550   28.1360 C.2    36  GLN36       0.2592
     28  O          8.4280  -25.6040   28.5920 O.2    36  GLN36      -0.2718
     29  CB         9.1410  -22.8650   27.6580 C.3    36  GLN36       0.0381
     30  CG         9.3710  -21.3760   27.6150 C.3    36  GLN36       0.0905
     31  CD        10.7060  -21.0100   27.0070 C.2    36  GLN36       0.2608
     32  OE1       10.7450  -20.3900   25.9180 O.2    36  GLN36      -0.2717
     33  NE2       11.8170  -21.3150   27.7210 N.am   36  GLN36      -0.0878
     34  N          6.5710  -25.0700   27.3880 N.am   37  ILE37      -0.1966
     35  CA         6.3220  -26.4640   27.0330 C.3    37  ILE37       0.1727
     36  C          5.5160  -26.6230   25.7590 C.2    37  ILE37       0.2616
     37  O          4.9270  -25.6600   25.2460 O.2    37  ILE37      -0.2715
     38  CB         5.6300  -27.2730   28.1660 C.3    37  ILE37       0.0290
     39  CG1        4.1260  -27.0520   28.2000 C.3    37  ILE37       0.0022
     40  CG2        6.1110  -26.8880   29.5230 C.3    37  ILE37       0.0023
     41  CD1        3.4430  -27.8280   29.3080 C.3    37  ILE37       0.0001
     42  N          5.5380  -27.8270   25.2080 N.am   38  LEU38      -0.1977
     43  CA         4.7340  -28.0660   24.0500 C.3    38  LEU38       0.1596
     44  C          3.4020  -28.6080   24.5510 C.2    38  LEU38       0.2287
     45  O          3.3440  -29.3400   25.5580 O.2    38  LEU38      -0.2864
     46  CB         5.3810  -29.0230   23.0440 C.3    38  LEU38       0.0297
     47  CG         6.7290  -28.6650   22.3860 C.3    38  LEU38       0.0022
     48  CD1        6.9950  -29.7400   21.3580 C.3    38  LEU38       0.0001
     49  CD2        6.9110  -27.1950   21.7910 C.3    38  LEU38       0.0001
     50  N          7.9330  -17.1900   17.5840 N.3    62  GLY62      -0.1210
     51  CA         8.8060  -18.2500   17.1170 C.3    62  GLY62       0.1956
     52  C         10.1660  -17.7040   17.5070 C.2    62  GLY62       0.2613
     53  O         10.5210  -16.5950   17.0730 O.2    62  GLY62      -0.2717
     54  N         10.8620  -18.4150   18.4090 N.am   63  SER63      -0.1938
     55  CA        12.1730  -18.0280   18.8840 C.3    63  SER63       0.2055
     56  C         13.1660  -17.6570   17.7660 C.2    63  SER63       0.2643
     57  O         13.5770  -16.4730   17.6270 O.2    63  SER63      -0.2714
     58  CB        12.7090  -19.0890   19.8520 C.3    63  SER63       0.2130
     59  OG        14.1030  -18.9960   20.0610 O.3    63  SER63      -0.2179
     60  N         13.5730  -18.6290   16.9670 N.am   64  THR64      -0.1950
     61  CA        14.5270  -18.3340   15.8900 C.3    64  THR64       0.1897
     62  C         14.0460  -17.1740   15.0120 C.2    64  THR64       0.2313
     63  O         14.8690  -16.3470   14.6080 O.2    64  THR64      -0.2863
     64  CB        14.8200  -19.5590   14.9910 C.3    64  THR64       0.1794
     65  OG1       15.5220  -20.5580   15.7380 O.3    64  THR64      -0.2208
     66  CG2       15.6230  -19.1360   13.7900 C.3    64  THR64       0.0378
     67  N         12.2380  -14.5960   15.8430 N.3    66  ASN66      -0.1240
     68  CA        12.4890  -13.3680   16.5900 C.3    66  ASN66       0.1653
     69  C         13.9700  -12.9310   16.5200 C.2    66  ASN66       0.2266
     70  O         14.3050  -11.7560   16.3670 O.2    66  ASN66      -0.2867
     71  CB        12.1040  -13.5540   18.0710 C.3    66  ASN66       0.1155
     72  CG        10.6700  -13.8470   18.2470 C.2    66  ASN66       0.2627
     73  OD1        9.8550  -13.3180   17.5430 O.2    66  ASN66      -0.2716
     74  ND2       10.3440  -14.5630   19.2970 N.am   66  ASN66      -0.0877
     75  N          1.6290  -20.0060   20.0080 N.3   121  CYS121     -0.1235
     76  CA         2.1850  -20.1390   21.3520 C.3   121  CYS121      0.1677
     77  C          1.3650  -19.2650   22.2840 C.2   121  CYS121      0.2270
     78  O          1.0480  -18.1220   21.9690 O.2   121  CYS121     -0.2867
     79  CB         3.6530  -19.7140   21.4380 C.3   121  CYS121      0.0956
     80  SG         4.4670  -20.2740   22.9750 S.3   121  CYS121     -0.0801
     81  N          4.6170  -20.4210   28.8910 N.3   132  LEU132     -0.1245
     82  CA         4.4050  -20.6150   27.4500 C.3   132  LEU132      0.1561
     83  C          4.0530  -22.0450   27.1160 C.2   132  LEU132      0.2260
     84  O          4.6920  -22.9730   27.5950 O.2   132  LEU132     -0.2867
     85  CB         5.6540  -20.1960   26.6590 C.3   132  LEU132      0.0270
     86  CG         6.2080  -18.7680   26.7610 C.3   132  LEU132      0.0019
     87  CD1        7.2310  -18.4620   25.6590 C.3   132  LEU132      0.0001
     88  CD2        5.0850  -17.7960   26.6420 C.3   132  LEU132      0.0001
     89  N          3.3500  -24.0250   23.4370 N.3   134  ALA134     -0.1245
     90  CA         3.2510  -23.9670   21.9840 C.3   134  ALA134      0.1562
     91  C          2.3710  -25.0710   21.3960 C.2   134  ALA134      0.2260
     92  O          2.4850  -26.2300   21.7710 O.2   134  ALA134     -0.2867
     93  CB         4.6300  -24.0500   21.3460 C.3   134  ALA134      0.0290
     94  N          2.5720  -26.1200   17.9590 N.3   136  LEU136     -0.1245
     95  CA         3.2960  -26.0570   16.7080 C.3   136  LEU136      0.1561
     96  C          2.3850  -26.1760   15.4900 C.2   136  LEU136      0.2260
     97  O          2.5320  -25.4210   14.5340 O.2   136  LEU136     -0.2867
     98  CB         4.3690  -27.1450   16.7120 C.3   136  LEU136      0.0270
     99  CG         5.4490  -26.8810   17.7720 C.3   136  LEU136      0.0019
    100  CD1        6.6490  -27.8340   17.5620 C.3   136  LEU136      0.0001
    101  CD2        5.8840  -25.3950   17.7230 C.3   136  LEU136      0.0001
    102  N         17.2870  -22.3650   16.6040 N.3   166  ALA166     -0.1245
    103  CA        16.9470  -22.6250   17.9800 C.3   166  ALA166      0.1562
    104  C         16.7030  -24.1210   18.1060 C.2   166  ALA166      0.2260
    105  O         16.1710  -24.7630   17.1900 O.2   166  ALA166     -0.2867
    106  CB        15.6920  -21.9030   18.2940 C.3   166  ALA166      0.0290
    107  N         14.5400  -25.5790   19.5420 N.3   168  PHE168     -0.1241
    108  CA        13.1050  -25.8510   19.4410 C.3   168  PHE168      0.1605
    109  C         12.7650  -26.6340   18.1890 C.2   168  PHE168      0.2264
    110  O         11.7380  -27.2760   18.1390 O.2   168  PHE168     -0.2867
    111  CB        12.2910  -24.5670   19.3780 C.3   168  PHE168      0.0534
    112  CG        12.0290  -23.9400   20.7220 C.ar  168  PHE168     -0.0203
    113  CD1       12.2600  -22.5670   20.9090 C.ar  168  PHE168     -0.0042
    114  CD2       11.4780  -24.6880   21.7640 C.ar  168  PHE168     -0.0042
    115  CE1       12.0380  -21.9710   22.1260 C.ar  168  PHE168     -0.0003
    116  CE2       11.2800  -24.0970   23.0230 C.ar  168  PHE168     -0.0003
    117  CZ        11.5670  -22.7380   23.2060 C.ar  168  PHE168     -0.0000
    118  N         13.0250  -28.7290   28.2250 N.3   199  PHE199     -0.1241
    119  CA        12.4230  -29.8980   27.6220 C.3   199  PHE199      0.1605
    120  C         13.2290  -30.4580   26.4630 C.2   199  PHE199      0.2264
    121  O         13.2510  -31.6890   26.2260 O.2   199  PHE199     -0.2867
    122  CB        10.9490  -29.6670   27.3400 C.3   199  PHE199      0.0534
    123  CG        10.6510  -28.8540   26.1110 C.ar  199  PHE199     -0.0203
    124  CD1       10.7000  -29.4300   24.8450 C.ar  199  PHE199     -0.0042
    125  CD2       10.1010  -27.6000   26.2270 C.ar  199  PHE199     -0.0042
    126  CE1       10.3120  -28.7210   23.7150 C.ar  199  PHE199     -0.0003
    127  CE2        9.6530  -26.8960   25.0900 C.ar  199  PHE199     -0.0003
    128  CZ         9.7330  -27.4720   23.8440 C.ar  199  PHE199     -0.0000
    129  N          9.8890   -9.4780   29.4090 N.3   292  ASP292     -0.1239
    130  CA         9.8870  -10.8540   28.9320 C.3   292  ASP292      0.1674
    131  C         11.3100  -11.4610   28.9070 C.2   292  ASP292      0.2266
    132  O         12.0520  -11.2710   27.9410 O.2   292  ASP292     -0.2867
    133  CB         9.3200  -10.8420   27.5180 C.3   292  ASP292      0.1410
    134  CG         8.9420  -12.1940   27.0420 C.2   292  ASP292      0.3668
    135  OD1        8.4260  -12.2940   25.9040 O.co2 292  ASP292     -0.2456
    136  OD2        9.0810  -13.1370   27.8420 O.co2 292  ASP292     -0.2456
    137  N         12.2660  -14.4970   28.3080 N.3   294  ASN294     -0.1225
    138  CA        12.3640  -15.2940   27.0910 C.3   294  ASN294      0.1785
    139  C         12.6050  -14.4160   25.8470 C.2   294  ASN294      0.2597
    140  O         13.5560  -14.6560   25.0890 O.2   294  ASN294     -0.2718
    141  CB        11.0940  -16.1340   26.9090 C.3   294  ASN294      0.1169
    142  CG        10.7470  -16.9850   28.1520 C.2   294  ASN294      0.2627
    143  OD1        9.5460  -17.0920   28.5240 O.2   294  ASN294     -0.2716
    144  ND2       11.7370  -17.7670   28.6410 N.am  294  ASN294     -0.0877
    145  N         11.7560  -13.4030   25.6580 N.am  295  GLY295     -0.1957
    146  CA        11.8670  -12.4780   24.5490 C.3   295  GLY295      0.1869
    147  C         13.2160  -11.7880   24.6130 C.2   295  GLY295      0.2309
    148  O         13.8460  -11.5010   23.5720 O.2   295  GLY295     -0.2863
    149  N         15.9060  -14.0170   23.2550 N.3   298  ASP298     -0.1239
    150  CA        15.8890  -14.1140   21.7960 C.3   298  ASP298      0.1674
    151  C         16.5720  -12.9020   21.1350 C.2   298  ASP298      0.2266
    152  O         17.2850  -13.0220   20.1240 O.2   298  ASP298     -0.2867
    153  CB        14.4330  -14.1540   21.3280 C.3   298  ASP298      0.1410
    154  CG        13.7570  -15.5090   21.5220 C.2   298  ASP298      0.3668
    155  OD1       14.4100  -16.5230   21.8860 O.co2 298  ASP298     -0.2456
    156  OD2       12.5530  -15.5200   21.2390 O.co2 298  ASP298     -0.2456
    157  N          8.7990   -6.4690   24.0130 N.3   330  ARG330     -0.1245
    158  CA         7.3820   -6.5980   23.7860 C.3   330  ARG330      0.1563
    159  C          6.6440   -6.1900   25.0690 C.2   330  ARG330      0.2260
    160  O          7.2240   -6.1390   26.1600 O.2   330  ARG330     -0.2867
    161  CB         6.9840   -7.9880   23.2770 C.3   330  ARG330      0.0307
    162  CG         6.4880   -7.9270   21.8340 C.3   330  ARG330      0.0489
    163  CD         6.4710   -9.2580   21.1540 C.3   330  ARG330      0.2205
    164  NE         5.5820  -10.1750   21.8440 N.pl3 330  ARG330     -0.0865
    165  CZ         5.5100  -11.4780   21.5760 C.cat 330  ARG330      0.5346
    166  NH1        6.2920  -12.0100   20.6280 N.pl3 330  ARG330      0.1354
    167  NH2        4.6680  -12.2500   22.2730 N.pl3 330  ARG330      0.1354
@<TRIPOS>BOND
     1    66    64    1
     2     3     2    1
     3     3     4    2
     4     1     2    1
     5     2     5    1
     6    97    96    2
     7    63    62    2
     8     7     6    2
     9     9    10    1
    10    64    65    1
    11    64    61    1
    12    62    61    1
    13     5     6    1
    14    96    95    1
    15    10    11    1
    16    10    13    1
    17     6     8   am
    18    12    11    2
    19    67    68    1
    20    61    60    1
    21    16    14    1
    22    70    69    2
    23    69    68    1
    24    68    71    1
    25   102   103    1
    26    95    98    1
    27    95    94    1
    28    98    99    1
    29    13    14    1
    30    60    56   am
    31    14    15    1
    32    53    52    2
    33    51    52    1
    34    51    50    1
    35   105   104    2
    36    52    54   am
    37    73    72    2
    38   100    99    1
    39    57    56    2
    40   101    99    1
    41    56    55    1
    42   103   104    1
    43   103   106    1
    44    71    72    1
    45   110   109    2
    46   109   108    1
    47    72    74   am
    48    54    55    1
    49    17    18    1
    50    55    58    1
    51   111   108    1
    52   111   112    1
    53   108   107    1
    54    58    59    1
    55    75    76    1
    56   152   151    2
    57    23    22   ar
    58    18    19    1
    59    18    21    1
    60    20    19    2
    61    24    22   ar
    62    22    21    1
    63   166   165    1
    64   112   113   ar
    65   112   114   ar
    66   113   115   ar
    67   151   150    1
    68   163   162    1
    69   163   164    1
    70   156   154   ar
    71   153   154    1
    72   153   150    1
    73    93    90    1
    74    76    79    1
    75    76    77    1
    76    48    47    1
    77    91    92    2
    78    91    90    1
    79    79    80    1
    80   154   155   ar
    81   165   164    2
    82   165   167    1
    83   114   116   ar
    84    49    47    1
    85   150   149    1
    86   162   161    1
    87    78    77    2
    88    90    89    1
    89   115   117   ar
    90    47    46    1
    91   116   117   ar
    92    46    43    1
    93   161   158    1
    94   148   147    2
    95   126   128   ar
    96   126   124   ar
    97   158   157    1
    98   158   159    1
    99   128   127   ar
   100    43    44    1
   101    43    42    1
   102   146   147    1
   103   146   145    1
   104    44    45    2
   105   124   123   ar
   106   159   160    2
   107   140   139    2
   108   127   125   ar
   109    42    36   am
   110    37    36    2
   111   145   139   am
   112    87    86    1
   113    36    35    1
   114   139   138    1
   115   135   134   ar
   116    32    31    2
   117   123   125   ar
   118   123   122    1
   119   121   120    2
   120   120   119    1
   121    88    86    1
   122    85    86    1
   123    85    82    1
   124   141   138    1
   125   141   142    1
   126    31    30    1
   127    31    33   am
   128    35    34    1
   129    35    38    1
   130   134   133    1
   131   134   136   ar
   132   138   137    1
   133    83    82    1
   134    83    84    2
   135   122   119    1
   136    34    27   am
   137    82    81    1
   138   133   130    1
   139    30    29    1
   140   119   118    1
   141    29    26    1
   142   132   131    2
   143    27    26    1
   144    27    28    2
   145   142   143    2
   146   142   144   am
   147    38    39    1
   148    38    40    1
   149    39    41    1
   150    26    25    1
   151   131   130    1
   152   130   129    1
