@<TRIPOS>MOLECULE
tmp/2i6bA00.pdb
 147 135 0 0 0
SMALL
GASTEIGER

@<TRIPOS>ATOM
      1  N          2.5110   -3.6320   33.8130 N.3    13  ASN13      -0.1240
      2  CA         2.6960   -4.9850   33.2760 C.3    13  ASN13       0.1653
      3  C          4.0300   -5.5740   33.6920 C.2    13  ASN13       0.2266
      4  O          5.0750   -5.1690   33.1970 O.2    13  ASN13      -0.2867
      5  CB         2.6650   -4.9570   31.7530 C.3    13  ASN13       0.1155
      6  CG         1.4540   -4.2400   31.2100 C.2    13  ASN13       0.2627
      7  OD1        1.5410   -3.4660   30.2230 O.2    13  ASN13      -0.2716
      8  ND2        0.3180   -4.5850   31.7350 N.am   13  ASN13      -0.0877
      9  N          6.8110   -7.9730   33.3320 N.3    15  LEU15      -0.1245
     10  CA         7.4100   -8.8120   32.3070 C.3    15  LEU15       0.1561
     11  C          8.6810   -9.4010   32.9000 C.2    15  LEU15       0.2260
     12  O          9.4630   -8.7100   33.5540 O.2    15  LEU15      -0.2867
     13  CB         7.7370   -7.9780   31.0260 C.3    15  LEU15       0.0270
     14  CG         6.5380   -7.2260   30.4730 C.3    15  LEU15       0.0019
     15  CD1        6.8660   -6.5040   29.1790 C.3    15  LEU15       0.0001
     16  CD2        5.3750   -8.1820   30.2780 C.3    15  LEU15       0.0001
     17  N         12.2440   -4.3200   18.1300 N.3    37  GLN37      -0.1231
     18  CA        11.3580   -4.7310   19.2340 C.3    37  GLN37       0.1698
     19  C          9.9190   -4.8470   18.7570 C.2    37  GLN37       0.2592
     20  O          9.3010   -3.8470   18.3900 O.2    37  GLN37      -0.2718
     21  CB        11.3990   -3.7120   20.3840 C.3    37  GLN37       0.0381
     22  CG        12.7110   -2.9580   20.5160 C.3    37  GLN37       0.0905
     23  CD        12.6780   -1.5930   19.8570 C.2    37  GLN37       0.2608
     24  OE1       13.0430   -1.4380   18.6860 O.2    37  GLN37      -0.2717
     25  NE2       12.2810   -0.5800   20.6240 N.am   37  GLN37      -0.0878
     26  N          9.4020   -6.0700   18.7470 N.am   38  ILE38      -0.1966
     27  CA         8.0210   -6.3490   18.3580 C.3    38  ILE38       0.1727
     28  C          7.3200   -7.2650   19.3730 C.2    38  ILE38       0.2616
     29  O          7.9230   -7.7050   20.3600 O.2    38  ILE38      -0.2715
     30  CB         7.9300   -7.0280   16.9810 C.3    38  ILE38       0.0290
     31  CG1        9.2490   -7.7400   16.6090 C.3    38  ILE38       0.0022
     32  CG2        7.3500   -6.0480   15.9070 C.3    38  ILE38       0.0023
     33  CD1        9.4090   -9.1550   17.2070 C.3    38  ILE38       0.0001
     34  N          6.0720   -7.6190   19.0800 N.am   39  LEU39      -0.1977
     35  CA         5.2970   -8.4770   19.9420 C.3    39  LEU39       0.1596
     36  C          5.3490   -9.9400   19.4470 C.2    39  LEU39       0.2287
     37  O          5.4330  -10.2230   18.2520 O.2    39  LEU39      -0.2864
     38  CB         3.8280   -7.9850   19.9770 C.3    39  LEU39       0.0297
     39  CG         3.1040   -7.0940   21.0330 C.3    39  LEU39       0.0022
     40  CD1        3.9220   -6.6530   22.2340 C.3    39  LEU39       0.0001
     41  CD2        2.4520   -5.9090   20.4160 C.3    39  LEU39       0.0001
     42  N          9.6990   -4.8640   32.5880 N.3    63  GLY63      -0.1210
     43  CA         8.4460   -4.1170   32.3620 C.3    63  GLY63       0.1956
     44  C          8.7510   -2.6390   32.7130 C.2    63  GLY63       0.2613
     45  O          9.4400   -2.3680   33.6810 O.2    63  GLY63      -0.2717
     46  N          8.2120   -1.6900   31.9610 N.am   64  SER64      -0.1938
     47  CA         8.4830   -0.2820   32.2030 C.3    64  SER64       0.2055
     48  C          8.2280    0.1810   33.6250 C.2    64  SER64       0.2643
     49  O          9.1390    0.6000   34.3200 O.2    64  SER64      -0.2714
     50  CB         7.6770    0.5820   31.2250 C.3    64  SER64       0.2130
     51  OG         6.9260   -0.2990   30.3790 O.3    64  SER64      -0.2179
     52  N          6.9630    0.1970   34.0230 N.am   65  THR65      -0.1950
     53  CA         6.6000    0.6490   35.3500 C.3    65  THR65       0.1897
     54  C          7.4370   -0.0750   36.4170 C.2    65  THR65       0.2313
     55  O          7.8560    0.5270   37.4190 O.2    65  THR65      -0.2863
     56  CB         5.1130    0.3830   35.6310 C.3    65  THR65       0.1794
     57  OG1        4.3050    1.1590   34.7420 O.3    65  THR65      -0.2208
     58  CG2        4.7960    0.7540   37.0490 C.3    65  THR65       0.0378
     59  N         10.4020   -1.3650   36.0450 N.3    67  ASN67      -0.1240
     60  CA        11.7850   -0.9520   35.8880 C.3    67  ASN67       0.1653
     61  C         11.9950    0.3150   36.6500 C.2    67  ASN67       0.2266
     62  O         12.9010    0.3940   37.4710 O.2    67  ASN67      -0.2867
     63  CB        12.1290   -0.7130   34.4370 C.3    67  ASN67       0.1155
     64  CG        12.3610   -1.9980   33.6780 C.2    67  ASN67       0.2627
     65  OD1       13.0260   -2.8820   34.1460 O.2    67  ASN67      -0.2716
     66  ND2       11.7450   -2.1100   32.5140 N.am   67  ASN67      -0.0877
     67  N          9.7690  -10.8450   28.1940 N.3   122  CYS122     -0.1235
     68  CA        10.4430  -10.0490   27.1730 C.3   122  CYS122      0.1677
     69  C         11.7320  -10.8240   26.8910 C.2   122  CYS122      0.2270
     70  O         12.2250  -11.5240   27.7590 O.2   122  CYS122     -0.2867
     71  CB        10.7120   -8.6250   27.6650 C.3   122  CYS122      0.0956
     72  SG        11.1740   -7.4350   26.3740 S.3   122  CYS122     -0.0801
     73  N         14.1650   -7.7830   20.3150 N.3   133  LEU133     -0.1245
     74  CA        13.2930   -7.9810   21.4900 C.3   133  LEU133      0.1561
     75  C         11.9580   -8.5850   21.1160 C.2   133  LEU133      0.2260
     76  O         11.2400   -8.0300   20.2810 O.2   133  LEU133     -0.2867
     77  CB        13.0380   -6.6560   22.1850 C.3   133  LEU133      0.0270
     78  CG        14.3700   -6.1550   22.7160 C.3   133  LEU133      0.0019
     79  CD1       14.1990   -4.8940   23.5560 C.3   133  LEU133      0.0001
     80  CD2       15.0570   -7.2510   23.5150 C.3   133  LEU133      0.0001
     81  N          8.4250   -9.4740   22.8550 N.3   135  ALA135     -0.1245
     82  CA         7.5440   -9.3270   24.0250 C.3   135  ALA135      0.1562
     83  C          6.2400  -10.0930   23.9590 C.2   135  ALA135      0.2260
     84  O          5.4660   -9.8800   23.0950 O.2   135  ALA135     -0.2867
     85  CB         7.2870   -7.8390   24.3420 C.3   135  ALA135      0.0290
     86  N          2.9770  -10.3640   26.3390 N.3   137  LEU137     -0.1245
     87  CA         2.3230   -9.8620   27.5510 C.3   137  LEU137      0.1561
     88  C          1.6500  -10.8790   28.4800 C.2   137  LEU137      0.2260
     89  O          1.8250  -10.8210   29.7080 O.2   137  LEU137     -0.2867
     90  CB         1.4120   -8.6920   27.2280 C.3   137  LEU137      0.0270
     91  CG         2.1650   -7.4590   26.6920 C.3   137  LEU137      0.0019
     92  CD1        1.2640   -6.3320   26.2110 C.3   137  LEU137      0.0001
     93  CD2        3.2640   -6.9290   27.5920 C.3   137  LEU137      0.0001
     94  N          3.0110    3.5640   34.1820 N.3   167  ALA167     -0.1245
     95  CA         3.3330    3.8060   32.7930 C.3   167  ALA167      0.1562
     96  C          2.0650    3.6490   31.9930 C.2   167  ALA167      0.2260
     97  O          1.1870    2.8930   32.3400 O.2   167  ALA167     -0.2867
     98  CB         4.4220    2.8520   32.2880 C.3   167  ALA167      0.0290
     99  N          1.4690    2.2370   29.3360 N.3   169  PHE169     -0.1241
    100  CA         1.2590    0.9360   28.6460 C.3   169  PHE169      0.1605
    101  C          0.1380    0.1600   29.3750 C.2   169  PHE169      0.2264
    102  O         -0.3690   -0.8580   28.9280 O.2   169  PHE169     -0.2867
    103  CB         2.5700    0.1050   28.6880 C.3   169  PHE169      0.0534
    104  CG         3.6040    0.5590   27.7040 C.ar  169  PHE169     -0.0203
    105  CD1        3.2270    0.8920   26.3920 C.ar  169  PHE169     -0.0042
    106  CD2        4.9550    0.6020   28.0530 C.ar  169  PHE169     -0.0042
    107  CE1        4.1650    1.2400   25.4490 C.ar  169  PHE169     -0.0003
    108  CE2        5.9230    0.9850   27.0940 C.ar  169  PHE169     -0.0003
    109  CZ         5.5290    1.2770   25.8050 C.ar  169  PHE169     -0.0000
    110  N         -3.5520    0.0000   28.2240 N.3   172  THR172     -0.1218
    111  CA        -3.9280   -1.0080   27.2540 C.3   172  THR172      0.1862
    112  C         -4.4680   -2.2360   27.9850 C.2   172  THR172      0.2287
    113  O         -4.9770   -3.1510   27.3560 O.2   172  THR172     -0.2866
    114  CB        -2.6980   -1.4420   26.3430 C.3   172  THR172      0.1770
    115  OG1       -1.8030   -2.2600   27.0940 O.3   172  THR172     -0.2211
    116  CG2       -1.8670   -0.1930   25.8070 C.3   172  THR172      0.0375
    117  N          1.8170    5.1890   20.0730 N.3   200  PHE200     -0.1241
    118  CA         0.5730    4.4510   19.8810 C.3   200  PHE200      0.1605
    119  C         -0.4840    4.6380   21.0030 C.2   200  PHE200      0.2264
    120  O         -1.6900    4.4730   20.7840 O.2   200  PHE200     -0.2867
    121  CB         0.8310    2.9580   19.5710 C.3   200  PHE200      0.0534
    122  CG         1.0420    2.0750   20.7970 C.ar  200  PHE200     -0.0203
    123  CD1        0.0080    1.2690   21.2710 C.ar  200  PHE200     -0.0042
    124  CD2        2.3160    1.9160   21.3730 C.ar  200  PHE200     -0.0042
    125  CE1        0.1850    0.4590   22.4010 C.ar  200  PHE200     -0.0003
    126  CE2        2.5190    1.0460   22.4730 C.ar  200  PHE200     -0.0003
    127  CZ         1.4320    0.3740   23.0070 C.ar  200  PHE200     -0.0000
    128  N         -5.4380    5.0640   22.1370 N.3   205  TYR205     -0.1241
    129  CA        -6.0270    4.8740   23.4460 C.3   205  TYR205      0.1605
    130  C         -6.3290    6.2570   24.0260 C.2   205  TYR205      0.2264
    131  O         -6.3250    6.4440   25.2390 O.2   205  TYR205     -0.2867
    132  CB        -5.0660    4.0760   24.3600 C.3   205  TYR205      0.0534
    133  CG        -4.8560    2.6150   23.9650 C.ar  205  TYR205     -0.0201
    134  CD1       -3.8040    2.2370   23.1160 C.ar  205  TYR205     -0.0009
    135  CD2       -5.6920    1.6020   24.4420 C.ar  205  TYR205     -0.0009
    136  CE1       -3.6020    0.9080   22.7030 C.ar  205  TYR205      0.0417
    137  CE2       -5.4690    0.2560   24.0610 C.ar  205  TYR205      0.0417
    138  CZ        -4.4310   -0.0630   23.1980 C.ar  205  TYR205      0.1957
    139  OH        -4.1890   -1.3690   22.8390 O.3   205  TYR205     -0.2866
    140  N         12.9200    4.9550   31.2820 N.3   299  ASP299     -0.1239
    141  CA        12.2980    4.2990   32.4390 C.3   299  ASP299      0.1674
    142  C         13.1920    4.5980   33.6220 C.2   299  ASP299      0.2266
    143  O         12.7120    4.7820   34.7220 O.2   299  ASP299     -0.2867
    144  CB        12.2270    2.7520   32.3080 C.3   299  ASP299      0.1410
    145  CG        11.1320    2.2630   31.3350 C.2   299  ASP299      0.3668
    146  OD1       10.3950    3.0720   30.7280 O.co2 299  ASP299     -0.2456
    147  OD2       11.1440    1.0480   31.0960 O.co2 299  ASP299     -0.2456
@<TRIPOS>BOND
     1    32    30    1
     2    31    30    1
     3    31    33    1
     4    30    27    1
     5    17    18    1
     6    37    36    2
     7    27    26    1
     8    27    28    1
     9    20    19    2
    10    24    23    2
    11    26    19   am
    12    19    18    1
    13    34    28   am
    14    34    35    1
    15    18    21    1
    16    28    29    2
    17    36    35    1
    18   121   118    1
    19   121   122    1
    20    23    22    1
    21    23    25   am
    22   118   117    1
    23   118   119    1
    24    35    38    1
    25    38    39    1
    26    76    75    2
    27    73    74    1
    28    21    22    1
    29    41    39    1
    30   120   119    2
    31   122   123   ar
    32   122   124   ar
    33    39    40    1
    34    75    74    1
    35   123   125   ar
    36   124   126   ar
    37    74    77    1
    38   128   129    1
    39    77    78    1
    40   125   127   ar
    41   126   127   ar
    42   136   134   ar
    43   136   138   ar
    44    78    80    1
    45    78    79    1
    46   139   138    1
    47    81    82    1
    48    84    83    2
    49   134   133   ar
    50   138   137   ar
    51   129   130    1
    52   129   132    1
    53    83    82    1
    54   133   132    1
    55   133   135   ar
    56    82    85    1
    57   130   131    2
    58   137   135   ar
    59   107   109   ar
    60   107   105   ar
    61   109   108   ar
    62   116   114    1
    63    92    91    1
    64    86    87    1
    65   114   115    1
    66   114   111    1
    67    72    71    1
    68   105   104   ar
    69    91    90    1
    70    91    93    1
    71    69    68    1
    72    69    70    2
    73   108   106   ar
    74    68    71    1
    75    68    67    1
    76    90    87    1
    77   111   112    1
    78   111   110    1
    79   113   112    2
    80    87    88    1
    81   104   106   ar
    82   104   103    1
    83    88    89    2
    84   100   103    1
    85   100    99    1
    86   100   101    1
    87   102   101    2
    88    15    14    1
    89     7     6    2
    90    16    14    1
    91    51    50    1
    92    14    13    1
    93   146   145   ar
    94    13    10    1
    95   147   145   ar
    96     6     8   am
    97     6     5    1
    98    50    47    1
    99   140   141    1
   100   145   144    1
   101     5     2    1
   102    46    47    1
   103    46    44   am
   104    96    97    2
   105    96    95    1
   106    47    48    1
   107    98    95    1
   108    10    11    1
   109    10     9    1
   110   144   141    1
   111    43    42    1
   112    43    44    1
   113   141   142    1
   114    66    64   am
   115    44    45    2
   116    95    94    1
   117    11    12    2
   118     4     3    2
   119     2     3    1
   120     2     1    1
   121   142   143    2
   122    48    52   am
   123    48    49    2
   124    64    65    2
   125    64    63    1
   126    52    53    1
   127    63    60    1
   128    57    56    1
   129    53    56    1
   130    53    54    1
   131    56    58    1
   132    60    59    1
   133    60    61    1
   134    54    55    2
   135    61    62    2
