@<TRIPOS>MOLECULE
tmp/2i6kA00.pdb
 155 146 0 0 0
SMALL
GASTEIGER

@<TRIPOS>ATOM
      1  N         -2.1670   11.1000  -13.0890 N.3    16  GLU16      -0.1245
      2  CA        -1.7550    9.7200  -13.3520 C.3    16  GLU16       0.1567
      3  C         -2.9600    8.8390  -13.6310 C.2    16  GLU16       0.2260
      4  O         -4.0130    9.0020  -13.0200 O.2    16  GLU16      -0.2867
      5  CB        -0.9550    9.1560  -12.1880 C.3    16  GLU16       0.0388
      6  CG         0.5180    9.5120  -12.2320 C.3    16  GLU16       0.1160
      7  CD         1.2900    8.9860  -11.0310 C.2    16  GLU16       0.3649
      8  OE1        0.6560    8.5090  -10.0550 O.co2  16  GLU16      -0.2457
      9  OE2        2.5430    9.0560  -11.0650 O.co2  16  GLU16      -0.2457
     10  N         -6.1820    9.4070  -11.3730 N.3    32  LYS32      -0.1245
     11  CA        -6.0920    9.3020   -9.9170 C.3    32  LYS32       0.1561
     12  C         -7.1350   10.1690   -9.2350 C.2    32  LYS32       0.2260
     13  O         -7.8250    9.7300   -8.3070 O.2    32  LYS32      -0.2867
     14  CB        -4.6640    9.6740   -9.4630 C.3    32  LYS32       0.0271
     15  CG        -4.4640    9.7660   -7.9580 C.3    32  LYS32       0.0035
     16  CD        -3.0070    9.9680   -7.6090 C.3    32  LYS32       0.0206
     17  CE        -2.7980    9.9550   -6.1010 C.3    32  LYS32       0.1093
     18  NZ        -1.3460   10.0150   -5.7770 N.3    32  LYS32      -0.1314
     19  N         -4.7060   -1.2930   -6.6520 N.3    49  ALA49      -0.1231
     20  CA        -3.8060   -0.6860   -5.6940 C.3    49  ALA49       0.1694
     21  C         -2.8770   -1.7130   -5.0850 C.2    49  ALA49       0.2592
     22  O         -3.1120   -2.9320   -5.2080 O.2    49  ALA49      -0.2718
     23  CB        -4.6150   -0.0130   -4.5800 C.3    49  ALA49       0.0304
     24  N         -1.8360   -1.2260   -4.4000 N.am   50  PHE50      -0.1976
     25  CA        -0.9560   -2.1000   -3.6310 C.3    50  PHE50       0.1639
     26  C         -0.5260   -1.4930   -2.2850 C.2    50  PHE50       0.2290
     27  O         -0.4340   -0.2590   -2.1220 O.2    50  PHE50      -0.2864
     28  CB         0.2680   -2.5070   -4.4690 C.3    50  PHE50       0.0560
     29  CG         1.1700   -1.3590   -4.7930 C.ar   50  PHE50      -0.0200
     30  CD1        2.1310   -0.9350   -3.8690 C.ar   50  PHE50      -0.0042
     31  CD2        1.0280   -0.6600   -6.0000 C.ar   50  PHE50      -0.0042
     32  CE1        2.9630    0.1650   -4.1480 C.ar   50  PHE50      -0.0003
     33  CE2        1.8370    0.4340   -6.2770 C.ar   50  PHE50      -0.0003
     34  CZ         2.8110    0.8450   -5.3600 C.ar   50  PHE50      -0.0000
     35  N          2.2440    9.8080    6.6550 N.3    66  ARG66      -0.1245
     36  CA         1.9370   10.5410    5.4480 C.3    66  ARG66       0.1563
     37  C          2.1280   12.0270    5.7290 C.2    66  ARG66       0.2260
     38  O          1.7310   12.4990    6.7860 O.2    66  ARG66      -0.2867
     39  CB         0.4870   10.2610    5.0170 C.3    66  ARG66       0.0307
     40  CG         0.2190    8.8220    4.5820 C.3    66  ARG66       0.0489
     41  CD        -1.2540    8.5530    4.3850 C.3    66  ARG66       0.2205
     42  NE        -1.8160    9.1240    3.1640 N.pl3  66  ARG66      -0.0865
     43  CZ        -1.6340    8.6130    1.9490 C.cat  66  ARG66       0.5346
     44  NH1       -0.8900    7.5250    1.7730 N.pl3  66  ARG66       0.1354
     45  NH2       -2.1860    9.1940    0.8920 N.pl3  66  ARG66       0.1354
     46  N         -0.4090   15.2100    1.4910 N.3    70  LYS70      -0.1245
     47  CA        -1.2370   14.1880    0.8710 C.3    70  LYS70       0.1561
     48  C         -2.7090   14.5890    0.8820 C.2    70  LYS70       0.2260
     49  O         -3.2100   15.1090    1.8700 O.2    70  LYS70      -0.2867
     50  CB        -1.0150   12.8280    1.5450 C.3    70  LYS70       0.0271
     51  CG         0.4420   12.4290    1.6090 C.3    70  LYS70       0.0035
     52  CD         1.0700   12.2660    0.2170 C.3    70  LYS70       0.0206
     53  CE         0.4890   11.0590   -0.5180 C.3    70  LYS70       0.1093
     54  NZ         1.0430   10.8670   -1.8910 N.3    70  LYS70      -0.1314
     55  N         -5.4010   12.5470    0.3490 N.3    72  THR72      -0.1218
     56  CA        -6.1440   11.6010    1.1620 C.3    72  THR72       0.1862
     57  C         -5.3080   11.2590    2.4010 C.2    72  THR72       0.2287
     58  O         -4.0980   11.0870    2.3090 O.2    72  THR72      -0.2866
     59  CB        -6.5150   10.3110    0.3740 C.3    72  THR72       0.1770
     60  OG1       -5.3440    9.7490   -0.2170 O.3    72  THR72      -0.2211
     61  CG2       -7.5250   10.5950   -0.7450 C.3    72  THR72       0.0375
     62  N          2.1560    2.6730    0.0390 N.3    82  CYS82      -0.1221
     63  CA         1.0080    2.3280   -0.8040 C.3    82  CYS82       0.1808
     64  C          0.9250    3.1910   -2.0490 C.2    82  CYS82       0.2602
     65  O          1.3140    4.3670   -2.0270 O.2    82  CYS82      -0.2717
     66  CB        -0.3090    2.5410   -0.0600 C.3    82  CYS82       0.0970
     67  SG        -0.4580    1.7460    1.4910 S.3    82  CYS82      -0.0800
     68  N          0.3990    2.6030   -3.1250 N.am   83  SER83      -0.1938
     69  CA         0.0050    3.3620   -4.3050 C.3    83  SER83       0.2055
     70  C         -0.8320    2.5100   -5.2480 C.2    83  SER83       0.2643
     71  O         -1.5110    1.5490   -4.8090 O.2    83  SER83      -0.2714
     72  CB         1.2280    3.9690   -5.0220 C.3    83  SER83       0.2130
     73  OG         0.8500    4.7880   -6.1140 O.3    83  SER83      -0.2179
     74  N         -0.7740    2.8710   -6.5300 N.am   84  HIS84      -0.1973
     75  CA        -1.5530    2.2730   -7.5830 C.3    84  HIS84       0.1656
     76  C         -0.6290    1.8830   -8.7090 C.2    84  HIS84       0.2291
     77  O          0.2820    2.6330   -9.0470 O.2    84  HIS84      -0.2864
     78  CB        -2.6090    3.2820   -8.0840 C.3    84  HIS84       0.0771
     79  CG        -3.3480    3.9710   -6.9790 C.ar   84  HIS84       0.0820
     80  ND1       -3.2100    5.3210   -6.7160 N.ar   84  HIS84      -0.2267
     81  CD2       -4.2020    3.4890   -6.0420 C.ar   84  HIS84       0.1154
     82  CE1       -3.9470    5.6370   -5.6640 C.ar   84  HIS84       0.1986
     83  NE2       -4.5750    4.5470   -5.2450 N.ar   84  HIS84      -0.2212
     84  N          7.3860    3.0310   -6.6000 N.3   107  ARG107     -0.1245
     85  CA         6.9620    3.9220   -5.5050 C.3   107  ARG107      0.1563
     86  C          7.8610    3.8770   -4.2810 C.2   107  ARG107      0.2260
     87  O          7.9930    4.8890   -3.5760 O.2   107  ARG107     -0.2867
     88  CB         5.4990    3.7240   -5.0700 C.3   107  ARG107      0.0307
     89  CG         4.4970    4.3120   -6.0220 C.3   107  ARG107      0.0489
     90  CD         4.6620    5.8180   -6.1990 C.3   107  ARG107      0.2205
     91  NE         4.0840    6.6220   -5.1170 N.pl3 107  ARG107     -0.0865
     92  CZ         4.1250    7.9560   -5.1000 C.cat 107  ARG107      0.5346
     93  NH1        4.7020    8.6200   -6.0900 N.pl3 107  ARG107      0.1354
     94  NH2        3.6010    8.6340   -4.1000 N.pl3 107  ARG107      0.1354
     95  N          8.7330    7.3770   -3.0650 N.3   111  GLU111     -0.1245
     96  CA         8.4000    7.8230   -1.7040 C.3   111  GLU111      0.1567
     97  C          9.5980    7.7980   -0.7410 C.2   111  GLU111      0.2260
     98  O          9.8650    8.7810   -0.0520 O.2   111  GLU111     -0.2867
     99  CB         7.2170    7.0540   -1.1300 C.3   111  GLU111      0.0388
    100  CG         5.9520    7.1630   -1.9570 C.3   111  GLU111      0.1160
    101  CD         4.7160    6.7020   -1.2080 C.2   111  GLU111      0.3649
    102  OE1        4.7660    6.5470    0.0360 O.co2 111  GLU111     -0.2457
    103  OE2        3.6700    6.4990   -1.8660 O.co2 111  GLU111     -0.2457
    104  N        -11.7120   -2.8890   -0.1440 N.3   132  TYR132     -0.1241
    105  CA       -12.1930   -1.9900    0.9070 C.3   132  TYR132      0.1605
    106  C        -12.6380   -0.6230    0.3300 C.2   132  TYR132      0.2264
    107  O        -12.2360   -0.2160   -0.7560 O.2   132  TYR132     -0.2867
    108  CB       -11.1510   -1.7970    2.0440 C.3   132  TYR132      0.0534
    109  CG       -10.0170   -0.8710    1.6670 C.ar  132  TYR132     -0.0201
    110  CD1      -10.0760    0.5070    1.9530 C.ar  132  TYR132     -0.0009
    111  CD2       -8.9160   -1.3510    0.9680 C.ar  132  TYR132     -0.0009
    112  CE1       -9.0470    1.3720    1.5630 C.ar  132  TYR132      0.0417
    113  CE2       -7.8830   -0.5080    0.5780 C.ar  132  TYR132      0.0417
    114  CZ        -7.9520    0.8590    0.8770 C.ar  132  TYR132      0.1957
    115  OH        -6.9120    1.6760    0.4850 O.3   132  TYR132     -0.2866
    116  N        -11.2430    6.4100   -0.7740 N.3   142  GLU142     -0.1245
    117  CA       -10.5990    5.2910   -1.4230 C.3   142  GLU142      0.1567
    118  C        -11.6250    4.2180   -1.7050 C.2   142  GLU142      0.2260
    119  O        -12.5930    4.0740   -0.9640 O.2   142  GLU142     -0.2867
    120  CB        -9.5120    4.7300   -0.5090 C.3   142  GLU142      0.0388
    121  CG        -8.1910    5.4730   -0.5630 C.3   142  GLU142      0.1160
    122  CD        -7.4180    5.2260   -1.8390 C.2   142  GLU142      0.3649
    123  OE1       -7.9010    4.5340   -2.7630 O.co2 142  GLU142     -0.2457
    124  OE2       -6.3020    5.7470   -1.9440 O.co2 142  GLU142     -0.2457
    125  N        -10.7020    0.3620   -3.4490 N.3   144  GLU144     -0.1245
    126  CA        -9.6270   -0.3690   -4.0810 C.3   144  GLU144      0.1567
    127  C         -9.7480   -1.8620   -3.8590 C.2   144  GLU144      0.2260
    128  O        -10.3130   -2.2950   -2.8770 O.2   144  GLU144     -0.2867
    129  CB        -8.2870    0.0620   -3.4730 C.3   144  GLU144      0.0388
    130  CG        -8.0630    1.5570   -3.4000 C.3   144  GLU144      0.1160
    131  CD        -6.6900    1.8840   -2.8790 C.2   144  GLU144      0.3649
    132  OE1       -6.3820    1.5450   -1.7150 O.co2 144  GLU144     -0.2457
    133  OE2       -5.8990    2.4480   -3.6450 O.co2 144  GLU144     -0.2457
    134  N         -6.7690   -4.0850   -3.0740 N.3   146  ASP146     -0.1239
    135  CA        -5.4100   -3.7910   -2.6610 C.3   146  ASP146      0.1674
    136  C         -4.6090   -5.0750   -2.6350 C.2   146  ASP146      0.2266
    137  O         -4.9690   -6.0100   -1.9230 O.2   146  ASP146     -0.2867
    138  CB        -5.4540   -3.1790   -1.2500 C.3   146  ASP146      0.1410
    139  CG        -4.2490   -2.3250   -0.9270 C.2   146  ASP146      0.3668
    140  OD1       -3.4510   -2.0700   -1.8230 O.co2 146  ASP146     -0.2456
    141  OD2       -4.0870   -1.8930    0.2360 O.co2 146  ASP146     -0.2456
    142  N         -6.9770    1.4050    5.8100 N.3   191  TRP191     -0.1241
    143  CA        -6.5100    0.1110    5.3130 C.3   191  TRP191      0.1605
    144  C         -5.4890   -0.5180    6.2560 C.2   191  TRP191      0.2264
    145  O         -5.4460   -1.7350    6.4000 O.2   191  TRP191     -0.2867
    146  CB        -5.9680    0.1930    3.8740 C.3   191  TRP191      0.0550
    147  CG        -4.7210    1.0130    3.7220 C.ar  191  TRP191      0.0003
    148  CD1       -3.4360    0.6070    3.9530 C.ar  191  TRP191      0.0946
    149  CD2       -4.6380    2.3850    3.2990 C.ar  191  TRP191      0.0152
    150  NE1       -2.5600    1.6460    3.7100 N.ar  191  TRP191     -0.2442
    151  CE2       -3.2720    2.7460    3.3120 C.ar  191  TRP191      0.0810
    152  CE3       -5.5850    3.3460    2.9280 C.ar  191  TRP191      0.0012
    153  CZ2       -2.8330    4.0290    2.9630 C.ar  191  TRP191      0.0191
    154  CZ3       -5.1460    4.6220    2.5800 C.ar  191  TRP191      0.0001
    155  CH2       -3.7870    4.9480    2.5960 C.ar  191  TRP191      0.0015
@<TRIPOS>BOND
     1     3     2    1
     2     3     4    2
     3     2     1    1
     4     2     5    1
     5     6     5    1
     6     6     7    1
     7    10    11    1
     8     9     7   ar
     9     7     8   ar
    10    11    14    1
    11    11    12    1
    12    14    15    1
    13    12    13    2
    14    77    76    2
    15    76    75    1
    16    78    75    1
    17    78    79    1
    18    15    16    1
    19    16    17    1
    20    75    74    1
    21    79    80   ar
    22    79    81   ar
    23    80    82   ar
    24    19    20    1
    25    84    85    1
    26    74    70   am
    27    33    31   ar
    28    33    34   ar
    29    90    89    1
    30    90    91    1
    31    73    72    1
    32    17    18    1
    33    93    92    1
    34    81    83   ar
    35    89    88    1
    36    31    29   ar
    37    20    21    1
    38    20    23    1
    39    82    83   ar
    40    85    88    1
    41    85    86    1
    42    34    32   ar
    43    70    71    2
    44    70    69    1
    45    22    21    2
    46    91    92    2
    47    92    94    1
    48    21    24   am
    49    72    69    1
    50    29    28    1
    51    29    30   ar
    52    28    25    1
    53    24    25    1
    54    69    68    1
    55    86    87    2
    56    32    30   ar
    57   126   127    1
    58   126   129    1
    59   126   125    1
    60   127   128    2
    61   133   131   ar
    62    25    26    1
    63   129   130    1
    64   130   131    1
    65    68    64   am
    66   134   135    1
    67    95    96    1
    68   131   132   ar
    69   123   122   ar
    70   135   136    1
    71   135   138    1
    72   136   137    2
    73    26    27    2
    74    64    65    2
    75    64    63    1
    76   100   101    1
    77   100    99    1
    78   124   122   ar
    79    54    53    1
    80   103   101   ar
    81   122   121    1
    82   140   139   ar
    83   118   117    1
    84   118   119    2
    85    96    99    1
    86    96    97    1
    87   117   116    1
    88   117   120    1
    89   138   139    1
    90   101   102   ar
    91   139   141   ar
    92    63    66    1
    93    63    62    1
    94   107   106    2
    95    61    59    1
    96    97    98    2
    97   121   120    1
    98    53    52    1
    99    60    59    1
   100   104   105    1
   101    66    67    1
   102    52    51    1
   103   106   105    1
   104    55    56    1
   105    59    56    1
   106   115   114    1
   107   113   114   ar
   108   113   111   ar
   109    47    48    1
   110    47    46    1
   111    47    50    1
   112   114   112   ar
   113    48    49    2
   114    45    43    1
   115   105   108    1
   116   111   109   ar
   117    56    57    1
   118    50    51    1
   119   112   110   ar
   120   109   110   ar
   121   109   108    1
   122    44    43    1
   123    43    42    2
   124    58    57    2
   125   154   155   ar
   126   154   152   ar
   127   155   153   ar
   128   152   149   ar
   129   153   151   ar
   130    42    41    1
   131   149   151   ar
   132   149   147   ar
   133   151   150   ar
   134   150   148   ar
   135   147   146    1
   136   147   148   ar
   137   146   143    1
   138    41    40    1
   139    40    39    1
   140    39    36    1
   141   143   142    1
   142   143   144    1
   143    36    37    1
   144    36    35    1
   145    37    38    2
   146   144   145    2
