@<TRIPOS>MOLECULE
tmp/2i6pA00.pdb
 83 78 0 0 0
SMALL
GASTEIGER

@<TRIPOS>ATOM
      1  N         25.0290   -5.8840   14.9960 N.3    40  GLU40      -0.1245
      2  CA        24.1500   -5.3690   16.0300 C.3    40  GLU40       0.1567
      3  C         23.2300   -6.4940   16.5050 C.2    40  GLU40       0.2260
      4  O         23.0270   -6.6960   17.7080 O.2    40  GLU40      -0.2867
      5  CB        23.3330   -4.1820   15.4980 C.3    40  GLU40       0.0388
      6  CG        24.0980   -2.8500   15.5020 C.3    40  GLU40       0.1160
      7  CD        23.2860   -1.6930   14.9340 C.2    40  GLU40       0.3649
      8  OE1       22.7850   -1.8170   13.7940 O.co2  40  GLU40      -0.2457
      9  OE2       23.1510   -0.6540   15.6210 O.co2  40  GLU40      -0.2457
     10  N         23.7920    2.4460   12.4650 N.3    69  ASP69      -0.1225
     11  CA        23.2900    3.3190   13.5300 C.3    69  ASP69       0.1805
     12  C         23.3700    4.7900   13.1330 C.2    69  ASP69       0.2598
     13  O         24.3920    5.2490   12.6150 O.2    69  ASP69      -0.2718
     14  CB        24.0970    3.0980   14.8260 C.3    69  ASP69       0.1424
     15  CG        23.3740    3.6250   16.0640 C.2    69  ASP69       0.3668
     16  OD1       22.4190    4.4130   15.9150 O.co2  69  ASP69      -0.2456
     17  OD2       23.7640    3.2570   17.1910 O.co2  69  ASP69      -0.2456
     18  N         22.2820    5.5170   13.3750 N.am   70  GLY70      -0.1957
     19  CA        22.2390    6.9360   13.0680 C.3    70  GLY70       0.1869
     20  C         22.2170    7.2700   11.5890 C.2    70  GLY70       0.2309
     21  O         22.2570    8.4470   11.2110 O.2    70  GLY70      -0.2863
     22  N         14.7920   -1.4390   14.9290 N.3    96  SER96      -0.1202
     23  CA        16.2280   -1.3160   14.7810 C.3    96  SER96       0.2020
     24  C         16.7180   -1.7570   16.1560 C.2    96  SER96       0.2619
     25  O         16.1210   -2.6440   16.7590 O.2    96  SER96      -0.2717
     26  CB        16.6320    0.1350   14.4640 C.3    96  SER96       0.2103
     27  OG        15.8430    1.0720   15.1740 O.3    96  SER96      -0.2182
     28  N         17.7730   -1.1410   16.6710 N.am   97  VAL97      -0.1965
     29  CA        18.2940   -1.5440   17.9730 C.3    97  VAL97       0.1727
     30  C         17.5860   -0.8320   19.1160 C.2    97  VAL97       0.2617
     31  O         16.9110   -1.4540   19.9230 O.2    97  VAL97      -0.2715
     32  CB        19.8200   -1.2890   18.0410 C.3    97  VAL97       0.0290
     33  CG1       20.3560   -1.5910   19.4470 C.3    97  VAL97       0.0023
     34  CG2       20.5260   -2.1380   16.9660 C.3    97  VAL97       0.0023
     35  N         17.7430    0.4800   19.1840 N.am   98  GLY98      -0.1940
     36  CA        17.0960    1.2370   20.2390 C.3    98  GLY98       0.2014
     37  C         15.6350    1.4750   19.9210 C.2    98  GLY98       0.2639
     38  O         14.8270    1.6290   20.8310 O.2    98  GLY98      -0.2714
     39  N         15.3040    1.5040   18.6280 N.am   99  GLY99      -0.1939
     40  CA        13.9310    1.7300   18.2180 C.3    99  GLY99       0.2014
     41  C         13.5210    3.1670   18.4450 C.2    99  GLY99       0.2639
     42  O         12.3890    3.4550   18.8350 O.2    99  GLY99      -0.2714
     43  N         14.4550    4.0750   18.1990 N.am  100  ILE100     -0.1963
     44  CA        14.2060    5.4940   18.3850 C.3   100  ILE100      0.1727
     45  C         14.6260    6.2830   17.1530 C.2   100  ILE100      0.2617
     46  O         13.7900    6.9500   16.5270 O.2   100  ILE100     -0.2715
     47  CB        14.9550    6.0280   19.6130 C.3   100  ILE100      0.0290
     48  CG1       14.5750    5.1980   20.8460 C.3   100  ILE100      0.0022
     49  CG2       14.6160    7.5020   19.8180 C.3   100  ILE100      0.0023
     50  CD1       15.1320    5.7350   22.1510 C.3   100  ILE100      0.0001
     51  N         15.9130    6.1880   16.8100 N.am  101  GLY101     -0.1940
     52  CA        16.4460    6.8670   15.6400 C.3   101  GLY101      0.2014
     53  C         16.0250    6.2930   14.2830 C.2   101  GLY101      0.2638
     54  O         15.1140    6.8000   13.6260 O.2   101  GLY101     -0.2714
     55  N         16.6980    5.2230   13.8650 N.am  102  ARG102     -0.1977
     56  CA        16.4410    4.5710   12.5790 C.3   102  ARG102      0.1597
     57  C         15.0040    4.1330   12.3420 C.2   102  ARG102      0.2287
     58  O         14.5050    4.1860   11.2110 O.2   102  ARG102     -0.2864
     59  CB        17.3660    3.3670   12.4160 C.3   102  ARG102      0.0334
     60  CG        18.7740    3.7400   12.0250 C.3   102  ARG102      0.0492
     61  CD        19.7290    2.5690   12.2070 C.3   102  ARG102      0.2205
     62  NE        19.8930    2.2380   13.6170 N.pl3 102  ARG102     -0.0865
     63  CZ        20.6330    1.2340   14.0730 C.cat 102  ARG102      0.5346
     64  NH1       21.2900    0.4510   13.2260 N.pl3 102  ARG102      0.1354
     65  NH2       20.7140    1.0000   15.3810 N.pl3 102  ARG102      0.1354
     66  N         17.2060   11.0440   15.8050 N.3   135  GLN135     -0.1245
     67  CA        18.3220   11.5980   16.5600 C.3   135  GLN135      0.1566
     68  C         19.5420   12.1350   15.8090 C.2   135  GLN135      0.2260
     69  O         20.4950   12.5670   16.4500 O.2   135  GLN135     -0.2867
     70  CB        18.7770   10.5420   17.5870 C.3   135  GLN135      0.0367
     71  CG        18.6950    9.1010   17.0780 C.3   135  GLN135      0.0905
     72  CD        18.8790    8.0410   18.1730 C.2   135  GLN135      0.2608
     73  OE1       18.2620    8.1100   19.2460 O.2   135  GLN135     -0.2717
     74  NE2       19.7160    7.0420   17.8910 N.am  135  GLN135     -0.0878
     75  N         19.4590   11.7810    9.4000 N.3   139  GLN139     -0.1245
     76  CA        18.0650   11.3640    9.2710 C.3   139  GLN139      0.1566
     77  C         17.1210   12.5220    8.9220 C.2   139  GLN139      0.2260
     78  O         16.2160   12.3740    8.0900 O.2   139  GLN139     -0.2867
     79  CB        17.6410   10.6350   10.5540 C.3   139  GLN139      0.0367
     80  CG        18.5740    9.4380   10.8530 C.3   139  GLN139      0.0905
     81  CD        18.5010    8.9250   12.2940 C.2   139  GLN139      0.2608
     82  OE1       18.3210    9.7060   13.2440 O.2   139  GLN139     -0.2717
     83  NE2       18.6650    7.6090   12.4630 N.am  139  GLN139     -0.0878
@<TRIPOS>BOND
     1    78    77    2
     2    77    76    1
     3    76    75    1
     4    76    79    1
     5    79    80    1
     6    80    81    1
     7    21    20    2
     8    58    57    2
     9    20    19    1
    10    60    61    1
    11    60    59    1
    12    61    62    1
    13    81    83   am
    14    81    82    2
    15    57    56    1
    16    59    56    1
    17    10    11    1
    18    56    55    1
    19    13    12    2
    20    19    18    1
    21    12    18   am
    22    12    11    1
    23    64    63    1
    24    11    14    1
    25    62    63    2
    26    54    53    2
    27     8     7   ar
    28    55    53   am
    29    63    65    1
    30    53    52    1
    31    26    23    1
    32    26    27    1
    33    23    22    1
    34    23    24    1
    35    14    15    1
    36     7     6    1
    37     7     9   ar
    38     1     2    1
    39     5     6    1
    40     5     2    1
    41    52    51    1
    42    66    67    1
    43    68    69    2
    44    68    67    1
    45    16    15   ar
    46     2     3    1
    47    15    17   ar
    48    24    28   am
    49    24    25    2
    50     3     4    2
    51    46    45    2
    52    67    70    1
    53    28    29    1
    54    51    45   am
    55    34    32    1
    56    71    70    1
    57    71    72    1
    58    45    44    1
    59    74    72   am
    60    29    32    1
    61    29    30    1
    62    32    33    1
    63    72    73    2
    64    43    44    1
    65    43    41   am
    66    40    41    1
    67    40    39    1
    68    44    47    1
    69    41    42    2
    70    39    37   am
    71    30    35   am
    72    30    31    2
    73    35    36    1
    74    47    49    1
    75    47    48    1
    76    37    36    1
    77    37    38    2
    78    48    50    1
