@<TRIPOS>MOLECULE
tmp/2i6qA00.pdb
 142 133 0 0 0
SMALL
GASTEIGER

@<TRIPOS>ATOM
      1  N         -2.3220   -2.2230   34.1580 N.3     2  LYS2       -0.1245
      2  CA        -2.6380   -3.5700   33.6960 C.3     2  LYS2        0.1561
      3  C         -1.4270   -4.4830   33.8650 C.2     2  LYS2        0.2260
      4  O         -0.3120   -4.0100   34.0910 O.2     2  LYS2       -0.2867
      5  CB        -3.0130   -3.5320   32.2120 C.3     2  LYS2        0.0271
      6  CG        -4.5000   -3.5520   31.9080 C.3     2  LYS2        0.0035
      7  CD        -4.7460   -4.2320   30.5710 C.3     2  LYS2        0.0206
      8  CE        -5.1560   -3.2510   29.4900 C.3     2  LYS2        0.1093
      9  NZ        -6.6160   -3.3480   29.2420 N.3     2  LYS2       -0.1314
     10  N         -3.0800  -19.1610   29.2140 N.3    41  ARG41      -0.1245
     11  CA        -3.0820  -17.9090   28.4620 C.3    41  ARG41       0.1563
     12  C         -1.7880  -17.1220   28.6490 C.2    41  ARG41       0.2260
     13  O         -1.1790  -16.6800   27.6720 O.2    41  ARG41      -0.2867
     14  CB        -4.3020  -17.0530   28.8240 C.3    41  ARG41       0.0307
     15  CG        -4.4240  -15.7500   28.0460 C.3    41  ARG41       0.0489
     16  CD        -4.3940  -15.9310   26.5360 C.3    41  ARG41       0.2205
     17  NE        -4.8980  -14.7850   25.7830 N.pl3  41  ARG41      -0.0865
     18  CZ        -4.5450  -14.5130   24.5290 C.cat  41  ARG41       0.5346
     19  NH1       -3.6750  -15.2940   23.9040 N.pl3  41  ARG41       0.1354
     20  NH2       -5.0560  -13.4650   23.8950 N.pl3  41  ARG41       0.1354
     21  N          2.0480  -16.3410   25.1520 N.3    45  PHE45      -0.1241
     22  CA         2.7160  -15.1640   24.6120 C.3    45  PHE45       0.1605
     23  C          4.2180  -15.3650   24.4820 C.2    45  PHE45       0.2264
     24  O          4.9210  -14.5100   23.9400 O.2    45  PHE45      -0.2867
     25  CB         2.4380  -13.9600   25.5110 C.3    45  PHE45       0.0534
     26  CG         1.0020  -13.5340   25.5210 C.ar   45  PHE45      -0.0203
     27  CD1        0.4590  -12.8670   24.4340 C.ar   45  PHE45      -0.0042
     28  CD2        0.1980  -13.7860   26.6230 C.ar   45  PHE45      -0.0042
     29  CE1       -0.8650  -12.4600   24.4450 C.ar   45  PHE45      -0.0003
     30  CE2       -1.1230  -13.3850   26.6420 C.ar   45  PHE45      -0.0003
     31  CZ        -1.6550  -12.7220   25.5540 C.ar   45  PHE45      -0.0000
     32  N         -8.5240    1.6060   36.1320 N.3   191  GLU191     -0.1245
     33  CA        -8.6410    0.1930   35.7890 C.3   191  GLU191      0.1567
     34  C         -9.1580   -0.6530   36.9510 C.2   191  GLU191      0.2260
     35  O         -8.5300   -0.7270   38.0090 O.2   191  GLU191     -0.2867
     36  CB        -7.2930   -0.3500   35.3070 C.3   191  GLU191      0.0388
     37  CG        -7.0290   -0.1490   33.8230 C.3   191  GLU191      0.1160
     38  CD        -7.7370   -1.1760   32.9620 C.2   191  GLU191      0.3649
     39  OE1       -7.7250   -2.3720   33.3260 O.co2 191  GLU191     -0.2457
     40  OE2       -8.3030   -0.7880   31.9180 O.co2 191  GLU191     -0.2457
     41  N         -8.5390  -11.2100   29.3430 N.3   208  GLU208     -0.1231
     42  CA        -8.0390  -10.5550   28.1270 C.3   208  GLU208      0.1699
     43  C         -7.8940   -9.0530   28.3480 C.2   208  GLU208      0.2592
     44  O         -6.9630   -8.4290   27.8490 O.2   208  GLU208     -0.2718
     45  CB        -8.9910  -10.7820   26.9460 C.3   208  GLU208      0.0402
     46  CG        -8.9970  -12.1990   26.3980 C.3   208  GLU208      0.1161
     47  CD        -7.6510  -12.6090   25.8400 C.2   208  GLU208      0.3649
     48  OE1       -7.3680  -12.2850   24.6660 O.co2 208  GLU208     -0.2457
     49  OE2       -6.8740  -13.2440   26.5850 O.co2 208  GLU208     -0.2457
     50  N         -8.8290   -8.4790   29.0970 N.am  209  HIS209     -0.1976
     51  CA        -8.7900   -7.0600   29.4130 C.3   209  HIS209      0.1656
     52  C         -7.8390   -6.7100   30.5550 C.2   209  HIS209      0.2291
     53  O         -7.5620   -5.5360   30.7850 O.2   209  HIS209     -0.2864
     54  CB       -10.1990   -6.5390   29.6880 C.3   209  HIS209      0.0771
     55  CG       -11.0000   -6.3160   28.4430 C.ar  209  HIS209      0.0820
     56  ND1      -10.7900   -5.2390   27.6070 N.ar  209  HIS209     -0.2267
     57  CD2      -11.9890   -7.0460   27.8750 C.ar  209  HIS209      0.1154
     58  CE1      -11.6290   -5.3050   26.5890 C.ar  209  HIS209      0.1986
     59  NE2      -12.3660   -6.3930   26.7270 N.ar  209  HIS209     -0.2212
     60  N         -4.8010   -7.8700   30.4640 N.3   211  LEU211     -0.1231
     61  CA        -3.4820   -8.0060   29.8650 C.3   211  LEU211      0.1693
     62  C         -3.1880   -6.8760   28.8860 C.2   211  LEU211      0.2592
     63  O         -3.9320   -6.6560   27.9320 O.2   211  LEU211     -0.2718
     64  CB        -3.3430   -9.3660   29.1770 C.3   211  LEU211      0.0284
     65  CG        -3.5480  -10.5920   30.0690 C.3   211  LEU211      0.0019
     66  CD1       -3.4360  -11.8530   29.2240 C.3   211  LEU211      0.0001
     67  CD2       -2.5600  -10.6220   31.2410 C.3   211  LEU211      0.0001
     68  N         -2.0960   -6.1640   29.1350 N.am  212  ASP212     -0.1960
     69  CA        -1.6130   -5.1320   28.2200 C.3   212  ASP212      0.1840
     70  C         -0.5650   -5.7330   27.2910 C.2   212  ASP212      0.2622
     71  O          0.5130   -6.1230   27.7390 O.2   212  ASP212     -0.2715
     72  CB        -1.0050   -3.9670   29.0060 C.3   212  ASP212      0.1450
     73  CG        -0.8020   -2.7330   28.1510 C.2   212  ASP212      0.3671
     74  OD1       -0.3440   -2.8720   26.9990 O.co2 212  ASP212     -0.2456
     75  OD2       -1.0730   -1.5790   28.5470 O.co2 212  ASP212     -0.2456
     76  N         -0.8880   -5.8280   26.0060 N.am  213  VAL213     -0.1963
     77  CA         0.0310   -6.4250   25.0370 C.3   213  VAL213      0.1727
     78  C          0.5960   -5.4040   24.0480 C.2   213  VAL213      0.2616
     79  O          1.2630   -5.7840   23.0880 O.2   213  VAL213     -0.2715
     80  CB        -0.6290   -7.5780   24.2380 C.3   213  VAL213      0.0290
     81  CG1       -1.0330   -8.7170   25.1660 C.3   213  VAL213      0.0023
     82  CG2       -1.8300   -7.0670   23.4600 C.3   213  VAL213      0.0023
     83  N          0.3440   -4.1180   24.2870 N.am  214  SER214     -0.1950
     84  CA         0.7550   -3.0720   23.3440 C.3   214  SER214      0.1924
     85  C          2.2640   -2.9980   23.1260 C.2   214  SER214      0.2314
     86  O          2.7180   -2.5670   22.0730 O.2   214  SER214     -0.2863
     87  CB         0.2020   -1.6990   23.7490 C.3   214  SER214      0.2116
     88  OG         0.6420   -1.3170   25.0430 O.3   214  SER214     -0.2180
     89  N         -0.9590  -14.5470   17.5190 N.3   223  VAL223     -0.1231
     90  CA        -1.4500  -13.9920   18.7700 C.3   223  VAL223      0.1692
     91  C         -2.6420  -13.1000   18.4610 C.2   223  VAL223      0.2593
     92  O         -2.5670  -12.2240   17.5970 O.2   223  VAL223     -0.2718
     93  CB        -0.3580  -13.2000   19.5120 C.3   223  VAL223      0.0266
     94  CG1       -0.9690  -12.3510   20.6260 C.3   223  VAL223      0.0020
     95  CG2        0.7140  -14.1460   20.0530 C.3   223  VAL223      0.0020
     96  N         -3.7480  -13.3430   19.1560 N.am  224  GLY224     -0.1942
     97  CA        -4.9570  -12.5620   18.9520 C.3   224  GLY224      0.2014
     98  C         -5.5530  -12.0420   20.2490 C.2   224  GLY224      0.2638
     99  O         -5.0170  -12.2620   21.3330 O.2   224  GLY224     -0.2714
    100  N         -6.6610  -11.3270   20.1220 N.am  225  ASN225     -0.1972
    101  CA        -7.4160  -10.8550   21.2670 C.3   225  ASN225      0.1688
    102  C         -8.7390  -11.5990   21.2490 C.2   225  ASN225      0.2292
    103  O         -9.4330  -11.6180   20.2330 O.2   225  ASN225     -0.2864
    104  CB        -7.6680   -9.3560   21.1480 C.3   225  ASN225      0.1181
    105  CG        -8.0180   -8.7170   22.4740 C.2   225  ASN225      0.2629
    106  OD1       -9.0110   -9.0710   23.1080 O.2   225  ASN225     -0.2716
    107  ND2       -7.1930   -7.7660   22.8980 N.am  225  ASN225     -0.0877
    108  N        -11.3140  -11.1500   23.4740 N.3   227  SER227     -0.1217
    109  CA       -12.4360  -10.4010   24.0310 C.3   227  SER227      0.1889
    110  C        -13.4320  -10.0260   22.9350 C.2   227  SER227      0.2288
    111  O        -13.0450   -9.7400   21.7990 O.2   227  SER227     -0.2866
    112  CB       -11.9570   -9.1400   24.7470 C.3   227  SER227      0.2089
    113  OG       -13.0630   -8.4030   25.2440 O.3   227  SER227     -0.2183
    114  N        -15.1980   -7.3920   23.2690 N.3   229  ASN229     -0.1225
    115  CA       -15.0710   -5.9350   23.2900 C.3   229  ASN229      0.1785
    116  C        -13.8760   -5.3810   22.5130 C.2   229  ASN229      0.2597
    117  O        -13.7780   -4.1730   22.2990 O.2   229  ASN229     -0.2718
    118  CB       -15.0270   -5.4270   24.7330 C.3   229  ASN229      0.1169
    119  CG       -16.3410   -5.6230   25.4570 C.2   229  ASN229      0.2627
    120  OD1      -17.1610   -6.4490   25.0600 O.2   229  ASN229     -0.2716
    121  ND2      -16.5490   -4.8610   26.5230 N.am  229  ASN229     -0.0877
    122  N        -12.9610   -6.2580   22.1170 N.am  230  ALA230     -0.1979
    123  CA       -11.8850   -5.8870   21.2030 C.3   230  ALA230      0.1597
    124  C        -12.4470   -5.6540   19.7980 C.2   230  ALA230      0.2287
    125  O        -13.5030   -6.1790   19.4480 O.2   230  ALA230     -0.2864
    126  CB       -10.8270   -6.9880   21.1650 C.3   230  ALA230      0.0319
    127  N         -8.1700   -6.4710   16.0010 N.3   234  GLU234     -0.1245
    128  CA        -7.4270   -6.9710   17.1570 C.3   234  GLU234      0.1567
    129  C         -7.6330   -8.4610   17.3950 C.2   234  GLU234      0.2260
    130  O         -6.7490   -9.1390   17.9160 O.2   234  GLU234     -0.2867
    131  CB        -7.8020   -6.1920   18.4180 C.3   234  GLU234      0.0388
    132  CG        -7.3480   -4.7470   18.3920 C.3   234  GLU234      0.1160
    133  CD        -7.6940   -4.0030   19.6680 C.2   234  GLU234      0.3649
    134  OE1       -8.8960   -3.8330   19.9690 O.co2 234  GLU234     -0.2457
    135  OE2       -6.7550   -3.5890   20.3730 O.co2 234  GLU234     -0.2457
    136  N         -0.9740   -4.5290   17.9790 N.3   333  THR333     -0.1218
    137  CA        -2.2050   -5.2230   18.3380 C.3   333  THR333      0.1862
    138  C         -3.1270   -5.4270   17.1390 C.2   333  THR333      0.2287
    139  O         -4.0590   -6.2300   17.1940 O.2   333  THR333     -0.2866
    140  CB        -2.9570   -4.4390   19.4170 C.3   333  THR333      0.1770
    141  OG1       -3.2310   -3.1190   18.9310 O.3   333  THR333     -0.2211
    142  CG2       -2.0710   -4.2200   20.6450 C.3   333  THR333      0.0375
@<TRIPOS>BOND
     1   127   128    1
     2   138   139    2
     3   138   137    1
     4   128   129    1
     5   128   131    1
     6   129   130    2
     7    89    90    1
     8    92    91    2
     9   136   137    1
    10   137   140    1
    11   132   131    1
    12   132   133    1
    13    91    90    1
    14    91    96   am
    15    90    93    1
    16   141   140    1
    17    97    96    1
    18    97    98    1
    19   140   142    1
    20   125   124    2
    21    93    95    1
    22    93    94    1
    23   133   134   ar
    24   133   135   ar
    25   124   123    1
    26   100    98   am
    27   100   101    1
    28   103   102    2
    29    98    99    2
    30   104   101    1
    31   104   105    1
    32   126   123    1
    33   123   122    1
    34   102   101    1
    35   111   110    2
    36    86    85    2
    37   122   116   am
    38   117   116    2
    39   105   107   am
    40   105   106    2
    41   116   115    1
    42   110   109    1
    43    79    78    2
    44    85    84    1
    45   114   115    1
    46   115   118    1
    47    84    87    1
    48    84    83    1
    49    82    80    1
    50   108   109    1
    51    87    88    1
    52    20    18    1
    53    19    18    1
    54    24    23    2
    55   109   112    1
    56    78    83   am
    57    78    77    1
    58    80    77    1
    59    80    81    1
    60    27    29   ar
    61    27    26   ar
    62    29    31   ar
    63    23    22    1
    64    18    17    2
    65    22    21    1
    66    22    25    1
    67    48    47   ar
    68   118   119    1
    69   112   113    1
    70    77    76    1
    71   120   119    2
    72   119   121   am
    73    25    26    1
    74    26    28   ar
    75    31    30   ar
    76    17    16    1
    77    47    46    1
    78    47    49   ar
    79    76    70   am
    80    46    45    1
    81    16    15    1
    82    58    59   ar
    83    58    56   ar
    84    28    30   ar
    85    59    57   ar
    86    45    42    1
    87    74    73   ar
    88    70    71    2
    89    70    69    1
    90    56    55   ar
    91    13    12    2
    92    44    43    2
    93    57    55   ar
    94    63    62    2
    95    15    14    1
    96    42    43    1
    97    42    41    1
    98    73    75   ar
    99    73    72    1
   100    69    72    1
   101    69    68    1
   102    43    50   am
   103    55    54    1
   104    11    12    1
   105    11    14    1
   106    11    10    1
   107    62    68   am
   108    62    61    1
   109    50    51    1
   110    64    61    1
   111    64    65    1
   112    66    65    1
   113     9     8    1
   114    51    54    1
   115    51    52    1
   116     8     7    1
   117    61    60    1
   118    65    67    1
   119    52    53    2
   120     7     6    1
   121     6     5    1
   122    40    38   ar
   123     5     2    1
   124    38    39   ar
   125    38    37    1
   126     2     3    1
   127     2     1    1
   128    37    36    1
   129     3     4    2
   130    36    33    1
   131    33    32    1
   132    33    34    1
   133    34    35    2
