@<TRIPOS>MOLECULE
tmp/2i6uB00.pdb
 117 111 0 0 0
SMALL
GASTEIGER

@<TRIPOS>ATOM
      1  N         17.9710  -29.4900   14.3920 N.3    49  ASN49      -0.1225
      2  CA        17.2980  -29.0420   13.1740 C.3    49  ASN49       0.1785
      3  C         16.6730  -27.6690   13.3760 C.2    49  ASN49       0.2598
      4  O         16.3770  -27.3100   14.5020 O.2    49  ASN49      -0.2718
      5  CB        16.1770  -30.0140   12.8200 C.3    49  ASN49       0.1169
      6  CG        16.6890  -31.3530   12.3980 C.2    49  ASN49       0.2627
      7  OD1       16.5690  -31.7500   11.2250 O.2    49  ASN49      -0.2716
      8  ND2       17.2680  -32.0670   13.3310 N.am   49  ASN49      -0.0877
      9  N         16.4670  -26.9290   12.2850 N.am   50  SER50      -0.1938
     10  CA        15.7100  -25.6790   12.2710 C.3    50  SER50       0.2055
     11  C         15.2770  -25.2060   10.8640 C.2    50  SER50       0.2644
     12  O         16.0730  -25.2670    9.9120 O.2    50  SER50      -0.2714
     13  CB        16.5470  -24.5560   12.8420 C.3    50  SER50       0.2130
     14  OG        15.8110  -23.3440   12.7090 O.3    50  SER50      -0.2179
     15  N         14.0460  -24.6820   10.7560 N.am   51  THR51      -0.1936
     16  CA        13.6150  -23.8640    9.5920 C.3    51  THR51       0.2028
     17  C         13.3870  -22.3820    9.9740 C.2    51  THR51       0.2642
     18  O         14.1130  -21.4950    9.5180 O.2    51  THR51      -0.2714
     19  CB        12.3360  -24.4390    8.9030 C.3    51  THR51       0.1808
     20  OG1       12.6190  -25.7450    8.3580 O.3    51  THR51      -0.2208
     21  CG2       11.7970  -23.4690    7.7970 C.3    51  THR51       0.0379
     22  N         12.3810  -22.1180   10.8080 N.am   52  ARG52      -0.1963
     23  CA        12.0890  -20.7520   11.2450 C.3    52  ARG52       0.1729
     24  C         13.3080  -20.0370   11.8700 C.2    52  ARG52       0.2616
     25  O         13.5100  -18.8540   11.6160 O.2    52  ARG52      -0.2715
     26  CB        10.9370  -20.7590   12.2310 C.3    52  ARG52       0.0348
     27  CG         9.5660  -20.7840   11.6080 C.3    52  ARG52       0.0492
     28  CD         8.6850  -21.8060   12.2880 C.3    52  ARG52       0.2205
     29  NE         9.3340  -23.1210   12.2200 N.pl3  52  ARG52      -0.0865
     30  CZ         8.9540  -24.0950   11.4030 C.cat  52  ARG52       0.5346
     31  NH1        7.9110  -23.9130   10.5970 N.pl3  52  ARG52       0.1354
     32  NH2        9.6050  -25.2510   11.3930 N.pl3  52  ARG52       0.1354
     33  N         14.1280  -20.7420   12.6670 N.am   53  THR53      -0.1951
     34  CA        15.1500  -20.0500   13.4650 C.3    53  THR53       0.1897
     35  C         16.3190  -19.7100   12.5580 C.2    53  THR53       0.2313
     36  O         16.8680  -18.6100   12.5830 O.2    53  THR53      -0.2863
     37  CB        15.5530  -20.8640   14.7840 C.3    53  THR53       0.1794
     38  OG1       14.4110  -20.9290   15.6500 O.3    53  THR53      -0.2208
     39  CG2       16.7090  -20.2080   15.5550 C.3    53  THR53       0.0378
     40  N         21.5570  -22.7050   19.1610 N.3   101  ARG101     -0.1245
     41  CA        20.4810  -23.6430   19.4210 C.3   101  ARG101      0.1563
     42  C         21.1490  -24.8910   19.9200 C.2   101  ARG101      0.2260
     43  O         22.0180  -25.4580   19.2510 O.2   101  ARG101     -0.2867
     44  CB        19.6620  -23.9380   18.1830 C.3   101  ARG101      0.0307
     45  CG        18.8060  -25.1940   18.3140 C.3   101  ARG101      0.0489
     46  CD        17.8000  -25.2550   17.1720 C.3   101  ARG101      0.2205
     47  NE        16.7780  -24.2310   17.3450 N.pl3 101  ARG101     -0.0865
     48  CZ        15.5330  -24.3590   16.9360 C.cat 101  ARG101      0.5346
     49  NH1       15.1770  -25.4490   16.2540 N.pl3 101  ARG101      0.1354
     50  NH2       14.6450  -23.4040   17.1930 N.pl3 101  ARG101      0.1354
     51  N         17.2380  -21.8140   21.1670 N.3   123  LEU123     -0.1245
     52  CA        16.4140  -22.9450   21.6670 C.3   123  LEU123      0.1561
     53  C         17.3720  -23.8270   22.4250 C.2   123  LEU123      0.2260
     54  O         18.4310  -24.1770   21.8860 O.2   123  LEU123     -0.2867
     55  CB        15.7190  -23.7900   20.5950 C.3   123  LEU123      0.0270
     56  CG        15.0210  -25.0550   21.1130 C.3   123  LEU123      0.0019
     57  CD1       13.7910  -25.3720   20.3080 C.3   123  LEU123      0.0001
     58  CD2       15.9540  -26.2830   21.1420 C.3   123  LEU123      0.0001
     59  N         12.9160  -21.7230   25.1370 N.3   128  HIS128     -0.1241
     60  CA        12.9250  -21.2260   23.7500 C.3   128  HIS128      0.1621
     61  C         12.5270  -19.7790   23.8060 C.2   128  HIS128      0.2264
     62  O         11.3850  -19.4250   23.4580 O.2   128  HIS128     -0.2867
     63  CB        11.9300  -22.0120   22.8890 C.3   128  HIS128      0.0745
     64  CG        12.1390  -21.8460   21.4110 C.ar  128  HIS128      0.0817
     65  ND1       13.0650  -20.9670   20.8710 N.ar  128  HIS128     -0.2268
     66  CD2       11.4990  -22.4130   20.3580 C.ar  128  HIS128      0.1154
     67  CE1       13.0110  -21.0360   19.5560 C.ar  128  HIS128      0.1986
     68  NE2       12.0550  -21.8870   19.2230 N.ar  128  HIS128     -0.2212
     69  N         11.2320  -17.4020   20.7320 N.3   131  GLN131     -0.1245
     70  CA         9.9340  -17.7500   20.2150 C.3   131  GLN131      0.1566
     71  C          8.8710  -17.0230   20.9630 C.2   131  GLN131      0.2260
     72  O          7.8950  -16.5470   20.3820 O.2   131  GLN131     -0.2867
     73  CB         9.6710  -19.2500   20.3860 C.3   131  GLN131      0.0367
     74  CG         8.2900  -19.6110   19.9420 C.3   131  GLN131      0.0905
     75  CD         8.1860  -19.5350   18.4110 C.2   131  GLN131      0.2608
     76  OE1        9.0710  -20.0230   17.7260 O.2   131  GLN131     -0.2717
     77  NE2        7.1070  -18.9400   17.8870 N.am  131  GLN131     -0.0878
     78  N         12.6810  -32.3000   19.9590 N.3   229  MET229     -0.1245
     79  CA        14.0100  -32.7790   19.5890 C.3   229  MET229      0.1570
     80  C         14.8490  -33.0850   20.8240 C.2   229  MET229      0.2261
     81  O         15.0690  -32.2120   21.6850 O.2   229  MET229     -0.2867
     82  CB        14.7300  -31.7490   18.7160 C.3   229  MET229      0.0387
     83  CG        14.0810  -31.4670   17.3520 C.3   229  MET229      0.0595
     84  SD        14.8660  -30.0830   16.4840 S.3   229  MET229     -0.1393
     85  CE        14.2140  -28.6440   17.2970 C.3   229  MET229      0.0692
     86  N          4.2900  -22.9250   17.9790 N.3   264  CYS264     -0.1221
     87  CA         5.5930  -22.4170   17.5160 C.3   264  CYS264      0.1808
     88  C          5.9990  -23.0070   16.1240 C.2   264  CYS264      0.2601
     89  O          6.7630  -22.3770   15.3810 O.2   264  CYS264     -0.2717
     90  CB         6.6800  -22.6440   18.5540 C.3   264  CYS264      0.0970
     91  SG         6.8600  -24.3620   18.9370 S.3   264  CYS264     -0.0800
     92  N          5.4720  -24.2010   15.8160 N.am  265  LEU265     -0.1966
     93  CA         5.8100  -24.9800   14.6200 C.3   265  LEU265      0.1713
     94  C          7.2180  -25.5430   14.7900 C.2   265  LEU265      0.2458
     95  O          8.0610  -24.9220   15.4350 O.2   265  LEU265     -0.2730
     96  CB         5.6980  -24.1100   13.3560 C.3   265  LEU265      0.0310
     97  CG         4.3910  -23.3480   13.1140 C.3   265  LEU265      0.0022
     98  CD1        4.4250  -22.6790   11.7650 C.3   265  LEU265      0.0001
     99  CD2        3.2010  -24.3010   13.2140 C.3   265  LEU265      0.0001
    100  N          7.5080  -26.6900   14.1690 N.am  266  PRO266     -0.2727
    101  CA         6.6890  -27.4270   13.1990 C.3   266  PRO266      0.1402
    102  C          5.5710  -28.1780   13.8890 C.2   266  PRO266      0.2269
    103  O          5.7630  -28.6670   15.0030 O.2   266  PRO266     -0.2865
    104  CB         7.6770  -28.3910   12.5840 C.3   266  PRO266      0.0296
    105  CG         8.6940  -28.6120   13.6240 C.3   266  PRO266      0.0237
    106  CD         8.8130  -27.3380   14.3970 C.3   266  PRO266      0.0939
    107  N          9.1710  -14.0660   14.2770 N.3   292  ARG292     -0.1245
    108  CA        10.4890  -14.5010   14.6910 C.3   292  ARG292      0.1563
    109  C         11.5280  -13.5230   14.1790 C.2   292  ARG292      0.2260
    110  O         12.4460  -13.1410   14.9350 O.2   292  ARG292     -0.2867
    111  CB        10.8220  -15.9230   14.2570 C.3   292  ARG292      0.0307
    112  CG         9.9560  -17.0090   14.9340 C.3   292  ARG292      0.0489
    113  CD        10.2560  -17.1160   16.4320 C.3   292  ARG292      0.2205
    114  NE        11.6820  -17.3490   16.6310 N.pl3 292  ARG292     -0.0865
    115  CZ        12.2380  -18.5510   16.4970 C.cat 292  ARG292      0.5346
    116  NH1       11.4750  -19.6080   16.2080 N.pl3 292  ARG292      0.1354
    117  NH2       13.5480  -18.6850   16.6280 N.pl3 292  ARG292      0.1354
@<TRIPOS>BOND
     1    21    19    1
     2    20    19    1
     3    19    16    1
     4    18    17    2
     5    16    17    1
     6    16    15    1
     7    12    11    2
     8    17    22   am
     9    31    30    1
    10    15    11   am
    11    22    23    1
    12    11    10    1
    13     7     6    2
    14    23    24    1
    15    23    26    1
    16    32    30    1
    17    30    29    2
    18    27    26    1
    19    27    28    1
    20    25    24    2
    21    98    97    1
    22    24    33   am
    23    29    28    1
    24    10     9    1
    25    10    13    1
    26     9     3   am
    27     6     5    1
    28     6     8   am
    29    35    36    2
    30    35    34    1
    31   104   101    1
    32   104   105    1
    33    33    34    1
    34    14    13    1
    35     5     2    1
    36    97    99    1
    37    97    96    1
    38     2     3    1
    39     2     1    1
    40   101   102    1
    41   101   100    1
    42    96    93    1
    43     3     4    2
    44    34    37    1
    45   105   106    1
    46   102   103    2
    47   100   106    1
    48   100    94   am
    49   109   108    1
    50   109   110    2
    51   111   108    1
    52   111   112    1
    53   107   108    1
    54    93    94    1
    55    93    92    1
    56    37    39    1
    57    37    38    1
    58    94    95    2
    59   112   113    1
    60    89    88    2
    61    92    88   am
    62    88    87    1
    63   116   115    1
    64    49    48    1
    65   113   114    1
    66    84    85    1
    67    84    83    1
    68   115   117    1
    69   115   114    2
    70    48    50    1
    71    48    47    2
    72    46    47    1
    73    46    45    1
    74    83    82    1
    75    87    86    1
    76    87    90    1
    77    76    75    2
    78    77    75   am
    79    44    45    1
    80    44    41    1
    81    75    74    1
    82    90    91    1
    83    82    79    1
    84    40    41    1
    85    68    67   ar
    86    68    66   ar
    87    43    42    2
    88    41    42    1
    89    67    65   ar
    90    79    78    1
    91    79    80    1
    92    74    73    1
    93    70    73    1
    94    70    69    1
    95    70    71    1
    96    57    56    1
    97    66    64   ar
    98    72    71    2
    99    55    56    1
   100    55    52    1
   101    80    81    2
   102    65    64   ar
   103    56    58    1
   104    51    52    1
   105    64    63    1
   106    52    53    1
   107    54    53    2
   108    63    60    1
   109    62    61    2
   110    60    61    1
   111    60    59    1
