@<TRIPOS>MOLECULE
tmp/2i6uB01.pdb
 132 124 0 0 0
SMALL
GASTEIGER

@<TRIPOS>ATOM
      1  N         20.7140  -28.6540   16.6460 N.3    48  LYS48      -0.1245
      2  CA        19.4940  -29.3760   16.3050 C.3    48  LYS48       0.1561
      3  C         18.9540  -28.8080   14.9780 C.2    48  LYS48       0.2260
      4  O         19.3940  -27.7520   14.5320 O.2    48  LYS48      -0.2867
      5  CB        18.4220  -29.1840   17.3810 C.3    48  LYS48       0.0271
      6  CG        18.7490  -29.7030   18.7610 C.3    48  LYS48       0.0035
      7  CD        17.7200  -29.1720   19.7810 C.3    48  LYS48       0.0206
      8  CE        17.9530  -29.7630   21.2020 C.3    48  LYS48       0.1093
      9  NZ        17.0460  -29.0450   22.2010 N.3    48  LYS48      -0.1314
     10  N         21.5570  -22.7050   19.1610 N.3   101  ARG101     -0.1245
     11  CA        20.4810  -23.6430   19.4210 C.3   101  ARG101      0.1563
     12  C         21.1490  -24.8910   19.9200 C.2   101  ARG101      0.2260
     13  O         22.0180  -25.4580   19.2510 O.2   101  ARG101     -0.2867
     14  CB        19.6620  -23.9380   18.1830 C.3   101  ARG101      0.0307
     15  CG        18.8060  -25.1940   18.3140 C.3   101  ARG101      0.0489
     16  CD        17.8000  -25.2550   17.1720 C.3   101  ARG101      0.2205
     17  NE        16.7780  -24.2310   17.3450 N.pl3 101  ARG101     -0.0865
     18  CZ        15.5330  -24.3590   16.9360 C.cat 101  ARG101      0.5346
     19  NH1       15.1770  -25.4490   16.2540 N.pl3 101  ARG101      0.1354
     20  NH2       14.6450  -23.4040   17.1930 N.pl3 101  ARG101      0.1354
     21  N         17.2380  -21.8140   21.1670 N.3   123  LEU123     -0.1245
     22  CA        16.4140  -22.9450   21.6670 C.3   123  LEU123      0.1561
     23  C         17.3720  -23.8270   22.4250 C.2   123  LEU123      0.2260
     24  O         18.4310  -24.1770   21.8860 O.2   123  LEU123     -0.2867
     25  CB        15.7190  -23.7900   20.5950 C.3   123  LEU123      0.0270
     26  CG        15.0210  -25.0550   21.1130 C.3   123  LEU123      0.0019
     27  CD1       13.7910  -25.3720   20.3080 C.3   123  LEU123      0.0001
     28  CD2       15.9540  -26.2830   21.1420 C.3   123  LEU123      0.0001
     29  N         12.9160  -21.7230   25.1370 N.3   128  HIS128     -0.1241
     30  CA        12.9250  -21.2260   23.7500 C.3   128  HIS128      0.1621
     31  C         12.5270  -19.7790   23.8060 C.2   128  HIS128      0.2264
     32  O         11.3850  -19.4250   23.4580 O.2   128  HIS128     -0.2867
     33  CB        11.9300  -22.0120   22.8890 C.3   128  HIS128      0.0745
     34  CG        12.1390  -21.8460   21.4110 C.ar  128  HIS128      0.0817
     35  ND1       13.0650  -20.9670   20.8710 N.ar  128  HIS128     -0.2268
     36  CD2       11.4990  -22.4130   20.3580 C.ar  128  HIS128      0.1154
     37  CE1       13.0110  -21.0360   19.5560 C.ar  128  HIS128      0.1986
     38  NE2       12.0550  -21.8870   19.2230 N.ar  128  HIS128     -0.2212
     39  N         11.2320  -17.4020   20.7320 N.3   131  GLN131     -0.1245
     40  CA         9.9340  -17.7500   20.2150 C.3   131  GLN131      0.1566
     41  C          8.8710  -17.0230   20.9630 C.2   131  GLN131      0.2260
     42  O          7.8950  -16.5470   20.3820 O.2   131  GLN131     -0.2867
     43  CB         9.6710  -19.2500   20.3860 C.3   131  GLN131      0.0367
     44  CG         8.2900  -19.6110   19.9420 C.3   131  GLN131      0.0905
     45  CD         8.1860  -19.5350   18.4110 C.2   131  GLN131      0.2608
     46  OE1        9.0710  -20.0230   17.7260 O.2   131  GLN131     -0.2717
     47  NE2        7.1070  -18.9400   17.8870 N.am  131  GLN131     -0.0878
     48  N          8.4420  -29.2060   28.4930 N.3   159  ASN159     -0.1225
     49  CA         9.3920  -28.8540   27.4010 C.3   159  ASN159      0.1785
     50  C          9.7900  -27.3710   27.4210 C.2   159  ASN159      0.2597
     51  O          9.2980  -26.5970   28.2400 O.2   159  ASN159     -0.2718
     52  CB         8.8630  -29.2950   26.0010 C.3   159  ASN159      0.1169
     53  CG         7.6150  -28.4950   25.5280 C.2   159  ASN159      0.2627
     54  OD1        7.3530  -27.3760   25.9800 O.2   159  ASN159     -0.2716
     55  ND2        6.8640  -29.0770   24.5910 N.am  159  ASN159     -0.0877
     56  N         10.6530  -26.9720   26.4910 N.am  160  ASN160     -0.1960
     57  CA        11.1060  -25.5870   26.4210 C.3   160  ASN160      0.1819
     58  C         10.0010  -24.5400   26.1960 C.2   160  ASN160      0.2621
     59  O         10.1200  -23.4030   26.6610 O.2   160  ASN160     -0.2715
     60  CB        12.2230  -25.4500   25.3810 C.3   160  ASN160      0.1195
     61  CG        11.9870  -26.3130   24.1240 C.2   160  ASN160      0.2630
     62  OD1       10.8640  -26.5240   23.7010 O.2   160  ASN160     -0.2716
     63  ND2       13.0520  -26.8600   23.5930 N.am  160  ASN160     -0.0877
     64  N          8.9250  -24.9020   25.5000 N.am  161  MET161     -0.1977
     65  CA         7.8980  -23.8880   25.1810 C.3   161  MET161      0.1605
     66  C          7.0250  -23.6010   26.3960 C.2   161  MET161      0.2287
     67  O          6.6480  -22.4490   26.6540 O.2   161  MET161     -0.2864
     68  CB         7.0000  -24.3140   23.9830 C.3   161  MET161      0.0413
     69  CG         7.6230  -24.1310   22.5680 C.3   161  MET161      0.0598
     70  SD         8.1840  -22.4630   22.3240 S.3   161  MET161     -0.1393
     71  CE         6.6930  -21.5030   22.6240 C.3   161  MET161      0.0692
     72  N          2.1480  -27.2520   21.0740 N.3   224  ASP224     -0.1225
     73  CA         3.4910  -27.5370   20.5270 C.3   224  ASP224      0.1805
     74  C          3.5840  -29.0670   20.3710 C.2   224  ASP224      0.2598
     75  O          2.6740  -29.7830   20.7840 O.2   224  ASP224     -0.2718
     76  CB         4.5870  -26.9780   21.4640 C.3   224  ASP224      0.1424
     77  CG         6.0330  -27.2920   20.9810 C.2   224  ASP224      0.3668
     78  OD1        6.2450  -27.5880   19.7720 O.co2 224  ASP224     -0.2456
     79  OD2        6.9790  -27.2200   21.8170 O.co2 224  ASP224     -0.2456
     80  N          4.6480  -29.5720   19.7590 N.am  225  THR225     -0.1953
     81  CA         4.7720  -30.9950   19.5500 C.3   225  THR225      0.1897
     82  C          4.7490  -31.7820   20.8840 C.2   225  THR225      0.2313
     83  O          5.2230  -31.3050   21.9270 O.2   225  THR225     -0.2863
     84  CB         6.0460  -31.3450   18.7380 C.3   225  THR225      0.1794
     85  OG1        6.1330  -32.7700   18.5700 O.3   225  THR225     -0.2208
     86  CG2        7.2950  -30.8670   19.4340 C.3   225  THR225      0.0378
     87  N          9.4910  -33.5020   21.3020 N.3   228  SER228     -0.1202
     88  CA        10.4630  -32.4870   20.9740 C.3   228  SER228      0.2020
     89  C         11.7790  -33.1140   20.5010 C.2   228  SER228      0.2618
     90  O         11.9710  -34.3200   20.6180 O.2   228  SER228     -0.2717
     91  CB        10.6890  -31.6070   22.2170 C.3   228  SER228      0.2103
     92  OG         9.5530  -30.7770   22.4630 O.3   228  SER228     -0.2182
     93  N         12.6810  -32.3000   19.9590 N.am  229  MET229     -0.1979
     94  CA        14.0100  -32.7790   19.5890 C.3   229  MET229      0.1605
     95  C         14.8490  -33.0850   20.8240 C.2   229  MET229      0.2287
     96  O         15.0690  -32.2120   21.6850 O.2   229  MET229     -0.2864
     97  CB        14.7300  -31.7490   18.7160 C.3   229  MET229      0.0413
     98  CG        14.0810  -31.4670   17.3520 C.3   229  MET229      0.0598
     99  SD        14.8660  -30.0830   16.4840 S.3   229  MET229     -0.1393
    100  CE        14.2140  -28.6440   17.2970 C.3   229  MET229      0.0692
    101  N          4.2900  -22.9250   17.9790 N.3   264  CYS264     -0.1221
    102  CA         5.5930  -22.4170   17.5160 C.3   264  CYS264      0.1808
    103  C          5.9990  -23.0070   16.1240 C.2   264  CYS264      0.2601
    104  O          6.7630  -22.3770   15.3810 O.2   264  CYS264     -0.2717
    105  CB         6.6800  -22.6440   18.5540 C.3   264  CYS264      0.0970
    106  SG         6.8600  -24.3620   18.9370 S.3   264  CYS264     -0.0800
    107  N          5.4720  -24.2010   15.8160 N.am  265  LEU265     -0.1966
    108  CA         5.8100  -24.9800   14.6200 C.3   265  LEU265      0.1713
    109  C          7.2180  -25.5430   14.7900 C.2   265  LEU265      0.2458
    110  O          8.0610  -24.9220   15.4350 O.2   265  LEU265     -0.2730
    111  CB         5.6980  -24.1100   13.3560 C.3   265  LEU265      0.0310
    112  CG         4.3910  -23.3480   13.1140 C.3   265  LEU265      0.0022
    113  CD1        4.4250  -22.6790   11.7650 C.3   265  LEU265      0.0001
    114  CD2        3.2010  -24.3010   13.2140 C.3   265  LEU265      0.0001
    115  N          7.5080  -26.6900   14.1690 N.am  266  PRO266     -0.2727
    116  CA         6.6890  -27.4270   13.1990 C.3   266  PRO266      0.1402
    117  C          5.5710  -28.1780   13.8890 C.2   266  PRO266      0.2269
    118  O          5.7630  -28.6670   15.0030 O.2   266  PRO266     -0.2865
    119  CB         7.6770  -28.3910   12.5840 C.3   266  PRO266      0.0296
    120  CG         8.6940  -28.6120   13.6240 C.3   266  PRO266      0.0237
    121  CD         8.8130  -27.3380   14.3970 C.3   266  PRO266      0.0939
    122  N          9.1710  -14.0660   14.2770 N.3   292  ARG292     -0.1245
    123  CA        10.4890  -14.5010   14.6910 C.3   292  ARG292      0.1563
    124  C         11.5280  -13.5230   14.1790 C.2   292  ARG292      0.2260
    125  O         12.4460  -13.1410   14.9350 O.2   292  ARG292     -0.2867
    126  CB        10.8220  -15.9230   14.2570 C.3   292  ARG292      0.0307
    127  CG         9.9560  -17.0090   14.9340 C.3   292  ARG292      0.0489
    128  CD        10.2560  -17.1160   16.4320 C.3   292  ARG292      0.2205
    129  NE        11.6820  -17.3490   16.6310 N.pl3 292  ARG292     -0.0865
    130  CZ        12.2380  -18.5510   16.4970 C.cat 292  ARG292      0.5346
    131  NH1       11.4750  -19.6080   16.2080 N.pl3 292  ARG292      0.1354
    132  NH2       13.5480  -18.6850   16.6280 N.pl3 292  ARG292      0.1354
@<TRIPOS>BOND
     1   113   112    1
     2   119   116    1
     3   119   120    1
     4   112   114    1
     5   112   111    1
     6   116   117    1
     7   116   115    1
     8   111   108    1
     9   120   121    1
    10   117   118    2
    11   115   121    1
    12   115   109   am
    13   124   123    1
    14   124   125    2
    15   126   123    1
    16   126   127    1
    17   122   123    1
    18     4     3    2
    19   108   109    1
    20   108   107    1
    21   109   110    2
    22   127   128    1
    23     3     2    1
    24   104   103    2
    25   107   103   am
    26   103   102    1
    27   131   130    1
    28    19    18    1
    29     2     1    1
    30     2     5    1
    31   128   129    1
    32    99   100    1
    33    99    98    1
    34   130   132    1
    35   130   129    2
    36    18    20    1
    37    18    17    2
    38    16    17    1
    39    16    15    1
    40    98    97    1
    41     5     6    1
    42   102   101    1
    43   102   105    1
    44    46    45    2
    45    47    45   am
    46    14    15    1
    47    14    11    1
    48    45    44    1
    49   105   106    1
    50    85    84    1
    51    97    94    1
    52    84    86    1
    53    84    81    1
    54     6     7    1
    55    10    11    1
    56    38    37   ar
    57    38    36   ar
    58    13    12    2
    59    11    12    1
    60    81    80    1
    61    81    82    1
    62    37    35   ar
    63    94    93    1
    64    94    95    1
    65    80    74   am
    66    78    77   ar
    67     7     8    1
    68    44    43    1
    69    93    89   am
    70    40    43    1
    71    40    39    1
    72    40    41    1
    73    27    26    1
    74    36    34   ar
    75    74    73    1
    76    74    75    2
    77    42    41    2
    78    89    90    2
    79    89    88    1
    80    73    72    1
    81    73    76    1
    82    25    26    1
    83    25    22    1
    84    95    96    2
    85    35    34   ar
    86    82    83    2
    87    88    87    1
    88    88    91    1
    89    77    76    1
    90    77    79   ar
    91    26    28    1
    92    21    22    1
    93     8     9    1
    94    34    33    1
    95    22    23    1
    96    24    23    2
    97    91    92    1
    98    70    69    1
    99    70    71    1
   100    69    68    1
   101    33    30    1
   102    32    31    2
   103    63    61   am
   104    62    61    2
   105    30    31    1
   106    30    29    1
   107    68    65    1
   108    61    60    1
   109    55    53   am
   110    65    64    1
   111    65    66    1
   112    60    57    1
   113    64    58   am
   114    53    54    2
   115    53    52    1
   116    52    49    1
   117    58    57    1
   118    58    59    2
   119    66    67    2
   120    57    56    1
   121    56    50   am
   122    49    50    1
   123    49    48    1
   124    50    51    2
