@<TRIPOS>MOLECULE
tmp/2i72A00.pdb
 112 104 0 0 0
SMALL
GASTEIGER

@<TRIPOS>ATOM
      1  N         -2.0710    1.2150   57.9190 N.3    61  SER61      -0.1217
      2  CA        -0.7590    1.7330   58.3280 C.3    61  SER61       0.1889
      3  C          0.1540    0.7560   59.0280 C.2    61  SER61       0.2288
      4  O          1.3020    1.0750   59.3150 O.2    61  SER61      -0.2866
      5  CB        -0.9130    2.9810   59.1800 C.3    61  SER61       0.2089
      6  OG        -1.4120    4.0560   58.3930 O.3    61  SER61      -0.2183
      7  N          3.3290    0.4660   57.1980 N.3    64  LYS64      -0.1245
      8  CA         4.4870    1.3390   57.4790 C.3    64  LYS64       0.1561
      9  C          5.6310    0.5910   58.1700 C.2    64  LYS64       0.2260
     10  O          6.7860    1.0030   58.0910 O.2    64  LYS64      -0.2867
     11  CB         4.0640    2.5680   58.3060 C.3    64  LYS64       0.0271
     12  CG         3.0060    3.4440   57.5670 C.3    64  LYS64       0.0035
     13  CD         2.4960    4.6210   58.4390 C.3    64  LYS64       0.0206
     14  CE         1.8460    5.7580   57.6240 C.3    64  LYS64       0.1093
     15  NZ         0.4910    5.3520   57.0050 N.3    64  LYS64      -0.1314
     16  N         -0.7620   14.6630   56.6660 N.3   116  LEU116     -0.1231
     17  CA        -1.2520   13.2970   56.8640 C.3   116  LEU116      0.1693
     18  C         -1.5430   12.5890   55.5560 C.2   116  LEU116      0.2592
     19  O         -1.1250   11.4510   55.3400 O.2   116  LEU116     -0.2718
     20  CB        -2.5340   13.3090   57.6960 C.3   116  LEU116      0.0284
     21  CG        -3.2530   11.9710   57.9600 C.3   116  LEU116      0.0019
     22  CD1       -2.3330   10.8620   58.5540 C.3   116  LEU116      0.0001
     23  CD2       -4.4500   12.2180   58.8540 C.3   116  LEU116      0.0001
     24  N         -2.2890   13.2610   54.6950 N.am  117  GLN117     -0.1966
     25  CA        -2.6020   12.6770   53.4060 C.3   117  GLN117      0.1733
     26  C         -2.0460   13.4530   52.2240 C.2   117  GLN117      0.2616
     27  O         -1.9630   14.6770   52.2520 O.2   117  GLN117     -0.2715
     28  CB        -4.1050   12.3970   53.2530 C.3   117  GLN117      0.0408
     29  CG        -5.0020   13.3280   54.0170 C.3   117  GLN117      0.0908
     30  CD        -6.4210   12.7950   54.1170 C.2   117  GLN117      0.2608
     31  OE1       -7.2030   12.9160   53.1670 O.2   117  GLN117     -0.2717
     32  NE2       -6.7670   12.2070   55.2690 N.am  117  GLN117     -0.0878
     33  N         -1.6300   12.7070   51.2050 N.am  118  VAL118     -0.1977
     34  CA        -1.3930   13.2900   49.8900 C.3   118  VAL118      0.1596
     35  C         -2.7820   13.6590   49.3600 C.2   118  VAL118      0.2287
     36  O         -3.6780   12.8070   49.3460 O.2   118  VAL118     -0.2864
     37  CB        -0.7170   12.2870   48.9280 C.3   118  VAL118      0.0276
     38  CG1       -0.4820   12.9320   47.5990 C.3   118  VAL118      0.0022
     39  CG2        0.6060   11.7820   49.5040 C.3   118  VAL118      0.0022
     40  N         -6.0140   13.9410   47.2960 N.3   120  ASP120     -0.1239
     41  CA        -6.5200   12.9360   46.3480 C.3   120  ASP120      0.1674
     42  C         -6.4760   13.3680   44.8760 C.2   120  ASP120      0.2266
     43  O         -6.6310   12.5240   43.9940 O.2   120  ASP120     -0.2867
     44  CB        -7.9350   12.4650   46.7320 C.3   120  ASP120      0.1410
     45  CG        -7.9640   11.6680   48.0580 C.2   120  ASP120      0.3668
     46  OD1       -7.0020   10.9010   48.3690 O.co2 120  ASP120     -0.2456
     47  OD2       -8.9740   11.8060   48.7970 O.co2 120  ASP120     -0.2456
     48  N          2.6100   12.6760   62.2790 N.3   147  TYR147     -0.1241
     49  CA         2.3410   11.4160   61.5960 C.3   147  TYR147      0.1605
     50  C          1.7190   11.6950   60.2100 C.2   147  TYR147      0.2264
     51  O          0.7350   12.4330   60.0910 O.2   147  TYR147     -0.2867
     52  CB         1.4100   10.5910   62.4770 C.3   147  TYR147      0.0534
     53  CG         0.9870    9.2840   61.9330 C.ar  147  TYR147     -0.0201
     54  CD1       -0.2280    9.1560   61.2540 C.ar  147  TYR147     -0.0009
     55  CD2        1.8160    8.1510   62.0670 C.ar  147  TYR147     -0.0009
     56  CE1       -0.6370    7.9240   60.7550 C.ar  147  TYR147      0.0417
     57  CE2        1.4370    6.9460   61.5770 C.ar  147  TYR147      0.0417
     58  CZ         0.2100    6.8220   60.9350 C.ar  147  TYR147      0.1957
     59  OH        -0.1750    5.6050   60.4750 O.3   147  TYR147     -0.2866
     60  N          1.3540   10.0750   55.9370 N.3   149  ASN149     -0.1240
     61  CA         1.5720    9.2460   54.7440 C.3   149  ASN149      0.1653
     62  C          2.5110    9.8890   53.7160 C.2   149  ASN149      0.2266
     63  O          3.2800    9.1870   53.0290 O.2   149  ASN149     -0.2867
     64  CB         0.2420    8.9830   54.0310 C.3   149  ASN149      0.1155
     65  CG        -0.6890    8.1060   54.8160 C.2   149  ASN149      0.2627
     66  OD1       -0.2870    7.3920   55.7540 O.2   149  ASN149     -0.2716
     67  ND2       -1.9720    8.1550   54.4410 N.am  149  ASN149     -0.0877
     68  N         -9.9400   -0.7110   49.9020 N.3   208  VAL208     -0.1231
     69  CA        -9.1580    0.5290   49.8760 C.3   208  VAL208      0.1692
     70  C         -8.9640    1.0060   48.4270 C.2   208  VAL208      0.2592
     71  O         -8.6500    0.2120   47.5390 O.2   208  VAL208     -0.2718
     72  CB        -7.7990    0.3340   50.6040 C.3   208  VAL208      0.0266
     73  CG1       -6.8670   -0.6820   49.8440 C.3   208  VAL208      0.0020
     74  CG2       -7.1250    1.6760   50.8690 C.3   208  VAL208      0.0020
     75  N         -9.1790    2.2870   48.1740 N.am  209  SER209     -0.1952
     76  CA        -9.0730    2.8030   46.7970 C.3   209  SER209      0.1924
     77  C         -7.6510    3.2740   46.4900 C.2   209  SER209      0.2314
     78  O         -6.9060    3.6170   47.4000 O.2   209  SER209     -0.2863
     79  CB       -10.1270    3.8870   46.5200 C.3   209  SER209      0.2116
     80  OG       -10.2890    4.7330   47.6510 O.3   209  SER209     -0.2180
     81  N          0.1850    2.4940   53.1540 N.3   218  TYR218     -0.1241
     82  CA        -0.9790    1.7690   53.7150 C.3   218  TYR218      0.1605
     83  C         -1.4930    0.6050   52.8440 C.2   218  TYR218      0.2264
     84  O         -2.6270    0.1510   52.9860 O.2   218  TYR218     -0.2867
     85  CB        -2.1050    2.7600   54.0580 C.3   218  TYR218      0.0534
     86  CG        -2.5870    3.6290   52.9050 C.ar  218  TYR218     -0.0201
     87  CD1       -3.5870    3.1900   52.0270 C.ar  218  TYR218     -0.0009
     88  CD2       -2.0530    4.9000   52.6980 C.ar  218  TYR218     -0.0009
     89  CE1       -4.0290    4.0050   50.9710 C.ar  218  TYR218      0.0417
     90  CE2       -2.4790    5.7080   51.6620 C.ar  218  TYR218      0.0417
     91  CZ        -3.4660    5.2630   50.8020 C.ar  218  TYR218      0.1957
     92  OH        -3.8790    6.0960   49.7700 O.3   218  TYR218     -0.2866
     93  N         -2.4840   11.6660   65.8280 N.3   290  LEU290     -0.1245
     94  CA        -2.4000   12.4850   64.6380 C.3   290  LEU290      0.1561
     95  C         -1.9840   13.9490   64.8610 C.2   290  LEU290      0.2260
     96  O         -1.9270   14.7120   63.9060 O.2   290  LEU290     -0.2867
     97  CB        -3.7140   12.4310   63.8570 C.3   290  LEU290      0.0270
     98  CG        -4.2470   11.0460   63.4630 C.3   290  LEU290      0.0019
     99  CD1       -5.4920   11.2670   62.5470 C.3   290  LEU290      0.0001
    100  CD2       -3.1780   10.1650   62.7710 C.3   290  LEU290      0.0001
    101  N         -5.4240    1.2650   59.7810 N.3   315  ALA315     -0.1231
    102  CA        -6.8190    1.4010   59.4300 C.3   315  ALA315      0.1694
    103  C         -6.8540    1.7800   57.9710 C.2   315  ALA315      0.2592
    104  O         -5.9220    2.4550   57.4680 O.2   315  ALA315     -0.2718
    105  CB        -7.5000    2.4680   60.3030 C.3   315  ALA315      0.0304
    106  N         -7.8600    1.2540   57.2790 N.am  316  THR316     -0.1953
    107  CA        -8.3020    1.7560   55.9820 C.3   316  THR316      0.1897
    108  C         -9.7710    2.0950   56.2310 C.2   316  THR316      0.2313
    109  O        -10.2190    2.0510   57.3920 O.2   316  THR316     -0.2863
    110  CB        -8.1940    0.7050   54.8680 C.3   316  THR316      0.1794
    111  OG1       -8.8930   -0.4780   55.2660 O.3   316  THR316     -0.2208
    112  CG2       -6.7340    0.3490   54.5710 C.3   316  THR316      0.0378
@<TRIPOS>BOND
     1    43    42    2
     2    42    41    1
     3    41    44    1
     4    41    40    1
     5    77    76    1
     6    77    78    2
     7    79    76    1
     8    79    80    1
     9    44    45    1
    10    76    75    1
    11    71    70    2
    12    38    37    1
    13    45    46   ar
    14    45    47   ar
    15    75    70   am
    16    70    69    1
    17    37    39    1
    18    37    34    1
    19    36    35    2
    20    35    34    1
    21    92    91    1
    22    73    72    1
    23    69    68    1
    24    69    72    1
    25    34    33    1
    26    72    74    1
    27    91    89   ar
    28    91    90   ar
    29    89    87   ar
    30    33    26   am
    31    90    88   ar
    32    87    86   ar
    33    26    27    2
    34    26    25    1
    35    88    86   ar
    36    83    84    2
    37    83    82    1
    38    86    85    1
    39    63    62    2
    40    81    82    1
    41    31    30    2
    42    28    25    1
    43    28    29    1
    44    25    24    1
    45    82    85    1
    46    62    61    1
    47    29    30    1
    48    64    61    1
    49    64    65    1
    50    30    32   am
    51    67    65   am
    52   112   110    1
    53    24    18   am
    54    61    60    1
    55    65    66    2
    56   110   111    1
    57   110   107    1
    58    19    18    2
    59    18    17    1
    60   107   108    1
    61   107   106    1
    62   108   109    2
    63    16    17    1
    64    17    20    1
    65    15    14    1
    66     7     8    1
    67   106   103   am
    68   104   103    2
    69     8     9    1
    70     8    11    1
    71    12    11    1
    72    12    13    1
    73    14    13    1
    74    20    21    1
    75     1     2    1
    76    21    22    1
    77    21    23    1
    78   103   102    1
    79    10     9    2
    80     2     3    1
    81     2     5    1
    82     6     5    1
    83     3     4    2
    84   102   101    1
    85   102   105    1
    86    51    50    2
    87    50    49    1
    88    59    58    1
    89    56    58   ar
    90    56    54   ar
    91    58    57   ar
    92    54    53   ar
    93    57    55   ar
    94    49    48    1
    95    49    52    1
    96    53    55   ar
    97    53    52    1
    98    99    98    1
    99   100    98    1
   100    98    97    1
   101    97    94    1
   102    96    95    2
   103    94    95    1
   104    94    93    1
