@<TRIPOS>MOLECULE
tmp/2i76A00.pdb
 207 204 0 0 0
SMALL
GASTEIGER

@<TRIPOS>ATOM
      1  N          6.2160   37.0630   -5.8110 N.3     5  VAL5       -0.1231
      2  CA         5.6010   38.3490   -6.0980 C.3     5  VAL5        0.1692
      3  C          5.4950   39.0730   -4.7700 C.2     5  VAL5        0.2593
      4  O          5.1000   38.4850   -3.7730 O.2     5  VAL5       -0.2718
      5  CB         4.1940   38.2060   -6.6800 C.3     5  VAL5        0.0266
      6  CG1        3.7330   39.5690   -7.1970 C.3     5  VAL5        0.0020
      7  CG2        4.1780   37.1480   -7.7860 C.3     5  VAL5        0.0020
      8  N          5.8640   40.3410   -4.7400 N.am    6  GLY6       -0.1942
      9  CA         5.7780   41.0530   -3.4860 C.3     6  GLY6        0.2014
     10  C          6.9980   40.9230   -2.5830 C.2     6  GLY6        0.2640
     11  O          7.1210   39.9740   -1.8010 O.2     6  GLY6       -0.2714
     12  N          7.8760   41.9190   -2.6900 N.am    7  THR7       -0.1936
     13  CA         9.1220   42.0420   -1.9390 C.3     7  THR7        0.2028
     14  C          8.9390   42.1140   -0.4180 C.2     7  THR7        0.2643
     15  O          9.7810   42.6600    0.2910 O.2     7  THR7       -0.2714
     16  CB         9.8980   43.3050   -2.4310 C.3     7  THR7        0.1808
     17  OG1        9.0280   44.4500   -2.4260 O.3     7  THR7       -0.2208
     18  CG2       10.4050   43.0920   -3.8580 C.3     7  THR7        0.0379
     19  N          7.8480   41.5460    0.0840 N.am    8  GLY8       -0.1939
     20  CA         7.5930   41.5720    1.5150 C.3     8  GLY8        0.2014
     21  C          8.6140   40.8630    2.3980 C.2     8  GLY8        0.2640
     22  O          9.3110   39.9450    1.9720 O.2     8  GLY8       -0.2714
     23  N          8.6940   41.3010    3.6480 N.am    9  THR9       -0.1936
     24  CA         9.6070   40.7260    4.6320 C.3     9  THR9        0.2028
     25  C          9.5360   39.2040    4.5830 C.2     9  THR9        0.2642
     26  O         10.5280   38.5100    4.7930 O.2     9  THR9       -0.2714
     27  CB         9.2080   41.1660    6.0650 C.3     9  THR9        0.1808
     28  OG1        9.1210   42.5990    6.1210 O.3     9  THR9       -0.2208
     29  CG2       10.2200   40.6410    7.1080 C.3     9  THR9        0.0379
     30  N          8.3410   38.6990    4.3000 N.am   10  LEU10      -0.1977
     31  CA         8.1050   37.2670    4.2600 C.3    10  LEU10       0.1596
     32  C          8.7250   36.5470    3.0660 C.2    10  LEU10       0.2287
     33  O          8.9810   35.3460    3.1320 O.2    10  LEU10      -0.2864
     34  CB         6.5970   36.9940    4.3130 C.3    10  LEU10       0.0297
     35  CG         6.2040   35.5290    4.5070 C.3    10  LEU10       0.0022
     36  CD1        7.0320   34.9450    5.6340 C.3    10  LEU10       0.0001
     37  CD2        4.7280   35.4030    4.8160 C.3    10  LEU10       0.0001
     38  N          7.5360   43.1290   -8.2340 N.3    25  SER25      -0.1202
     39  CA         7.2050   44.1650   -7.2800 C.3    25  SER25       0.2020
     40  C          6.6360   45.3230   -8.0890 C.2    25  SER25       0.2618
     41  O          6.8120   45.3740   -9.3060 O.2    25  SER25      -0.2717
     42  CB         8.4690   44.6040   -6.5260 C.3    25  SER25       0.2103
     43  OG         8.2300   45.7000   -5.6500 O.3    25  SER25      -0.2182
     44  N          5.9420   46.2430   -7.4250 N.am   26  ARG26      -0.1979
     45  CA         5.3790   47.3980   -8.1130 C.3    26  ARG26       0.1597
     46  C          6.5550   48.2830   -8.5140 C.2    26  ARG26       0.2287
     47  O          6.4820   49.0250   -9.4890 O.2    26  ARG26      -0.2864
     48  CB         4.4260   48.1530   -7.1930 C.3    26  ARG26       0.0334
     49  CG         3.1100   47.4780   -6.9160 C.3    26  ARG26       0.0492
     50  CD         2.1290   48.4730   -6.3160 C.3    26  ARG26       0.2205
     51  NE         2.6850   49.1750   -5.1570 N.pl3  26  ARG26      -0.0865
     52  CZ         2.7530   48.6690   -3.9260 C.cat  26  ARG26       0.5346
     53  NH1        2.2950   47.4490   -3.6810 N.pl3  26  ARG26       0.1354
     54  NH2        3.2810   49.3800   -2.9360 N.pl3  26  ARG26       0.1354
     55  N         12.9620   47.7560   -6.1440 N.3    30  ARG30      -0.1245
     56  CA        12.6590   46.8160   -5.0790 C.3    30  ARG30       0.1563
     57  C         12.7760   45.3630   -5.5050 C.2    30  ARG30       0.2260
     58  O         13.2550   44.5250   -4.7490 O.2    30  ARG30      -0.2867
     59  CB        11.2640   47.0900   -4.5300 C.3    30  ARG30       0.0307
     60  CG        11.2310   48.2750   -3.5890 C.3    30  ARG30       0.0489
     61  CD         9.8830   48.4390   -2.9200 C.3    30  ARG30       0.2205
     62  NE         8.8530   48.8730   -3.8560 N.pl3  30  ARG30      -0.0865
     63  CZ         7.6040   49.1630   -3.5050 C.cat  30  ARG30       0.5346
     64  NH1        7.2330   49.0610   -2.2330 N.pl3  30  ARG30       0.1354
     65  NH2        6.7280   49.5610   -4.4200 N.pl3  30  ARG30       0.1354
     66  N          5.8030   44.1170  -12.6060 N.3    44  THR44      -0.1218
     67  CA         4.4730   43.5300  -12.4630 C.3    44  THR44       0.1862
     68  C          3.8800   43.7460  -13.8530 C.2    44  THR44       0.2287
     69  O          2.6760   43.6220  -14.0970 O.2    44  THR44      -0.2866
     70  CB         3.6520   44.2730  -11.4060 C.3    44  THR44       0.1770
     71  OG1        4.5120   44.6270  -10.3180 O.3    44  THR44      -0.2211
     72  CG2        2.5190   43.3800  -10.8720 C.3    44  THR44       0.0375
     73  N          2.5150   34.2250   -4.1210 N.3    54  VAL54      -0.1231
     74  CA         1.9490   35.5590   -4.1780 C.3    54  VAL54       0.1692
     75  C          1.9190   36.0560   -2.7490 C.2    54  VAL54       0.2592
     76  O          0.8950   35.9970   -2.0760 O.2    54  VAL54      -0.2718
     77  CB         0.5320   35.5550   -4.7800 C.3    54  VAL54       0.0266
     78  CG1        0.0440   36.9820   -4.9400 C.3    54  VAL54       0.0020
     79  CG2        0.5420   34.8740   -6.1300 C.3    54  VAL54       0.0020
     80  N          3.0660   36.5320   -2.2840 N.am   55  ILE55      -0.1966
     81  CA         3.1880   37.0200   -0.9210 C.3    55  ILE55       0.1727
     82  C          2.9040   38.5160   -0.7980 C.2    55  ILE55       0.2616
     83  O          3.8210   39.3510   -0.7290 O.2    55  ILE55      -0.2715
     84  CB         4.5890   36.6970   -0.3560 C.3    55  ILE55       0.0290
     85  CG1        4.9710   35.2680   -0.7550 C.3    55  ILE55       0.0022
     86  CG2        4.5890   36.8500    1.1580 C.3    55  ILE55       0.0023
     87  CD1        6.2470   34.7540   -0.1350 C.3    55  ILE55       0.0001
     88  N          1.6180   38.8450   -0.8000 N.am   56  VAL56      -0.1964
     89  CA         1.1820   40.2230   -0.6430 C.3    56  VAL56       0.1712
     90  C         -0.0750   40.2300    0.2210 C.2    56  VAL56       0.2458
     91  O         -0.7480   39.2130    0.3530 O.2    56  VAL56      -0.2730
     92  CB         0.8430   40.8880   -1.9880 C.3    56  VAL56       0.0289
     93  CG1        2.0220   40.7680   -2.9370 C.3    56  VAL56       0.0023
     94  CG2       -0.4270   40.2780   -2.5600 C.3    56  VAL56       0.0023
     95  N         -0.3970   41.3800    0.8310 N.am   57  PRO57      -0.2716
     96  CA        -1.5740   41.5330    1.6830 C.3    57  PRO57       0.1536
     97  C         -2.7570   40.6710    1.2400 C.2    57  PRO57       0.2598
     98  O         -3.0970   40.6290    0.0560 O.2    57  PRO57      -0.2715
     99  CB        -1.8680   43.0220    1.5610 C.3    57  PRO57       0.0310
    100  CG        -0.5020   43.6010    1.5630 C.3    57  PRO57       0.0237
    101  CD         0.2690   42.6830    0.6360 C.3    57  PRO57       0.0939
    102  N         -3.3790   39.9960    2.2010 N.am   58  ASP58      -0.1972
    103  CA        -4.5370   39.1380    1.9460 C.3    58  ASP58       0.1709
    104  C         -5.5760   39.8050    1.0370 C.2    58  ASP58       0.2293
    105  O         -6.4010   39.1410    0.3930 O.2    58  ASP58      -0.2864
    106  CB        -5.2270   38.7880    3.2730 C.3    58  ASP58       0.1436
    107  CG        -4.7370   37.4880    3.8690 C.2    58  ASP58       0.3671
    108  OD1       -3.6480   37.4690    4.4650 O.co2  58  ASP58      -0.2456
    109  OD2       -5.4490   36.4790    3.7330 O.co2  58  ASP58      -0.2456
    110  N         -5.1070   41.6530   -1.7440 N.3    60  TYR60      -0.1227
    111  CA        -4.8720   41.6800   -3.1900 C.3    60  TYR60       0.1736
    112  C         -4.4190   40.3670   -3.8420 C.2    60  TYR60       0.2595
    113  O         -4.3020   40.2850   -5.0670 O.2    60  TYR60      -0.2718
    114  CB        -3.8680   42.7880   -3.5140 C.3    60  TYR60       0.0548
    115  CG        -4.1660   44.0820   -2.7870 C.ar   60  TYR60      -0.0200
    116  CD1       -3.3720   44.5080   -1.7190 C.ar   60  TYR60      -0.0009
    117  CD2       -5.2750   44.8540   -3.1330 C.ar   60  TYR60      -0.0009
    118  CE1       -3.6820   45.6660   -1.0190 C.ar   60  TYR60       0.0417
    119  CE2       -5.5910   46.0110   -2.4380 C.ar   60  TYR60       0.0417
    120  CZ        -4.7950   46.4110   -1.3860 C.ar   60  TYR60       0.1957
    121  OH        -5.1260   47.5580   -0.7050 O.3    60  TYR60      -0.2866
    122  N         -4.1760   39.3440   -3.0330 N.am   61  ILE61      -0.1980
    123  CA        -3.7370   38.0470   -3.5400 C.3    61  ILE61       0.1595
    124  C         -4.5210   37.5840   -4.7710 C.2    61  ILE61       0.2287
    125  O         -3.9280   37.2230   -5.7840 O.2    61  ILE61      -0.2864
    126  CB        -3.8570   36.9600   -2.4540 C.3    61  ILE61       0.0276
    127  CG1       -3.0510   37.3630   -1.2300 C.3    61  ILE61       0.0022
    128  CG2       -3.3390   35.6360   -2.9750 C.3    61  ILE61       0.0022
    129  CD1       -3.3410   36.5140   -0.0420 C.3    61  ILE61       0.0001
    130  N         -4.3220   40.5230   -7.8400 N.3    64  VAL64      -0.1245
    131  CA        -2.9440   40.4790   -8.3360 C.3    64  VAL64       0.1561
    132  C         -2.6650   39.1910   -9.1070 C.2    64  VAL64       0.2260
    133  O         -2.1270   39.2220  -10.2090 O.2    64  VAL64      -0.2867
    134  CB        -1.9240   40.6020   -7.1710 C.3    64  VAL64       0.0252
    135  CG1       -0.5240   40.2640   -7.6630 C.3    64  VAL64       0.0019
    136  CG2       -1.9490   42.0100   -6.6000 C.3    64  VAL64       0.0019
    137  N         -0.2990   31.0690   -1.8250 N.3    77  HIS77      -0.1226
    138  CA        -0.2240   32.2720   -1.0060 C.3    77  HIS77       0.1752
    139  C         -0.0410   31.7950    0.4300 C.2    77  HIS77       0.2596
    140  O         -0.1570   30.5990    0.7260 O.2    77  HIS77      -0.2718
    141  CB        -1.4670   33.1630   -1.1520 C.3    77  HIS77       0.0759
    142  CG        -2.7400   32.5070   -0.7310 C.ar   77  HIS77       0.0818
    143  ND1       -2.9920   32.1400    0.5700 N.ar   77  HIS77      -0.2268
    144  CD2       -3.8250   32.1300   -1.4470 C.ar   77  HIS77       0.1154
    145  CE1       -4.1770   31.5590    0.6390 C.ar   77  HIS77       0.1986
    146  NE2       -4.7030   31.5410   -0.5710 N.ar   77  HIS77      -0.2212
    147  N          0.2550   32.7240    1.3270 N.am   78  CYS78      -0.1956
    148  CA         0.5040   32.3530    2.7110 C.3    78  CYS78       0.1843
    149  C         -0.5560   32.8700    3.6670 C.2    78  CYS78       0.2626
    150  O         -0.3320   32.9420    4.8720 O.2    78  CYS78      -0.2714
    151  CB         1.8780   32.8820    3.1170 C.3    78  CYS78       0.0997
    152  SG         3.0840   32.8380    1.7490 S.3    78  CYS78      -0.0797
    153  N         -1.7160   33.2240    3.1340 N.am   79  SER79      -0.1936
    154  CA        -2.7890   33.7380    3.9660 C.3    79  SER79       0.2055
    155  C         -3.2140   32.7440    5.0360 C.2    79  SER79       0.2643
    156  O         -3.4240   31.5500    4.7470 O.2    79  SER79      -0.2714
    157  CB        -4.0030   34.0840    3.1100 C.3    79  SER79       0.2130
    158  OG        -5.1390   34.2910    3.9260 O.3    79  SER79      -0.2179
    159  N         -3.3400   33.2500    6.2680 N.am   80  GLY80      -0.1954
    160  CA        -3.7780   32.4250    7.3840 C.3    80  GLY80       0.1869
    161  C         -5.2940   32.2880    7.3900 C.2    80  GLY80       0.2309
    162  O         -5.8690   31.3630    7.9650 O.2    80  GLY80      -0.2863
    163  N          1.0840   28.4890    5.2540 N.3    96  HIS96      -0.1227
    164  CA         1.0190   29.4700    6.3240 C.3    96  HIS96       0.1737
    165  C          1.8810   29.2290    7.5540 C.2    96  HIS96       0.2438
    166  O          1.5970   28.3330    8.3610 O.2    96  HIS96      -0.2733
    167  CB        -0.4390   29.6550    6.7660 C.3    96  HIS96       0.0758
    168  CG        -0.6050   30.6720    7.8510 C.ar   96  HIS96       0.0818
    169  ND1       -0.5840   30.3440    9.1910 N.ar   96  HIS96      -0.2268
    170  CD2       -0.6990   32.0220    7.7940 C.ar   96  HIS96       0.1154
    171  CE1       -0.6550   31.4480    9.9120 C.ar   96  HIS96       0.1986
    172  NE2       -0.7250   32.4800    9.0900 N.ar   96  HIS96      -0.2212
    173  N          2.9360   30.0490    7.7230 N.am   97  PRO97      -0.2729
    174  CA         3.8730   29.9750    8.8460 C.3    97  PRO97       0.1401
    175  C          3.3190   30.7000   10.0780 C.2    97  PRO97       0.2269
    176  O          3.0610   31.9130   10.0270 O.2    97  PRO97      -0.2865
    177  CB         5.1170   30.6580    8.2890 C.3    97  PRO97       0.0296
    178  CG         4.5310   31.7380    7.4660 C.3    97  PRO97       0.0237
    179  CD         3.4090   31.0290    6.7300 C.3    97  PRO97       0.0939
    180  N          3.9900   32.5210   12.7380 N.3    99  PHE99      -0.1227
    181  CA         5.1010   33.2760   13.2970 C.3    99  PHE99       0.1736
    182  C          4.9380   34.7260   12.8380 C.2    99  PHE99       0.2596
    183  O          4.2150   35.0130   11.8760 O.2    99  PHE99      -0.2718
    184  CB         6.4190   32.6850   12.7730 C.3    99  PHE99       0.0547
    185  CG         7.6050   32.8690   13.7000 C.ar   99  PHE99      -0.0202
    186  CD1        8.3670   34.0370   13.6660 C.ar   99  PHE99      -0.0042
    187  CD2        7.9990   31.8410   14.5680 C.ar   99  PHE99      -0.0042
    188  CE1        9.5050   34.1790   14.4800 C.ar   99  PHE99      -0.0003
    189  CE2        9.1300   31.9740   15.3810 C.ar   99  PHE99      -0.0003
    190  CZ         9.8840   33.1420   15.3330 C.ar   99  PHE99      -0.0000
    191  N          5.5900   35.6420   13.5410 N.am  100  SER100     -0.1938
    192  CA         5.5140   37.0480   13.1880 C.3   100  SER100      0.2055
    193  C          6.8580   37.4840   12.5990 C.2   100  SER100      0.2643
    194  O          7.9220   37.2880   13.2010 O.2   100  SER100     -0.2714
    195  CB         5.1720   37.8780   14.4190 C.3   100  SER100      0.2130
    196  OG         4.9550   39.2220   14.0440 O.3   100  SER100     -0.2179
    197  N          6.8040   38.0800   11.4160 N.am  101  PHE101     -0.1973
    198  CA         8.0140   38.5020   10.7190 C.3   101  PHE101      0.1639
    199  C          8.1940   40.0170   10.7280 C.2   101  PHE101      0.2290
    200  O          8.3430   40.6220   11.7910 O.2   101  PHE101     -0.2864
    201  CB         7.9720   37.9710    9.2770 C.3   101  PHE101      0.0560
    202  CG         7.6410   36.5020    9.1830 C.ar  101  PHE101     -0.0200
    203  CD1        6.3550   36.0460    9.4410 C.ar  101  PHE101     -0.0042
    204  CD2        8.6290   35.5710    8.8940 C.ar  101  PHE101     -0.0042
    205  CE1        6.0600   34.6770    9.4290 C.ar  101  PHE101     -0.0003
    206  CE2        8.3530   34.2020    8.8780 C.ar  101  PHE101     -0.0003
    207  CZ         7.0640   33.7490    9.1450 C.ar  101  PHE101     -0.0000
@<TRIPOS>BOND
     1    69    68    2
     2    68    67    1
     3    66    67    1
     4    67    70    1
     5    70    72    1
     6    70    71    1
     7   133   132    2
     8    47    46    2
     9    41    40    2
    10   132   131    1
    11    46    45    1
    12   131   130    1
    13   131   134    1
    14    38    39    1
    15    45    44    1
    16    45    48    1
    17    40    44   am
    18    40    39    1
    19     7     5    1
    20   135   134    1
    21    39    42    1
    22     6     5    1
    23    48    49    1
    24   134   136    1
    25    49    50    1
    26     5     2    1
    27    42    43    1
    28    50    51    1
    29    55    56    1
    30    79    77    1
    31     2     1    1
    32     2     3    1
    33   125   124    2
    34    57    56    1
    35    57    58    2
    36    51    52    2
    37    56    59    1
    38   113   112    2
    39    78    77    1
    40    77    74    1
    41   124   123    1
    42     3     8   am
    43     3     4    2
    44     8     9    1
    45    59    60    1
    46    65    63    1
    47    74    73    1
    48    74    75    1
    49    52    53    1
    50    52    54    1
    51    18    16    1
    52    62    63    2
    53    62    61    1
    54   112   111    1
    55   112   122   am
    56    60    61    1
    57   123   122    1
    58   123   126    1
    59   114   111    1
    60   114   115    1
    61    63    64    1
    62     9    10    1
    63   111   110    1
    64   117   115   ar
    65   117   119   ar
    66   128   126    1
    67    93    92    1
    68   115   116   ar
    69    75    80   am
    70    75    76    2
    71    12    10   am
    72    12    13    1
    73    10    11    2
    74    94    92    1
    75   126   127    1
    76   119   120   ar
    77    16    17    1
    78    16    13    1
    79    80    81    1
    80    92    89    1
    81    13    14    1
    82   137   138    1
    83   116   118   ar
    84   144   142   ar
    85   144   146   ar
    86   120   118   ar
    87   120   121    1
    88   127   129    1
    89   141   138    1
    90   141   142    1
    91   138   139    1
    92    81    82    1
    93    81    84    1
    94    88    82   am
    95    88    89    1
    96    82    83    2
    97    85    84    1
    98    85    87    1
    99   142   143   ar
   100    89    90    1
   101   146   145   ar
   102    14    19   am
   103    14    15    2
   104    84    86    1
   105    98    97    2
   106    19    20    1
   107    90    91    2
   108    90    95   am
   109   105   104    2
   110   139   140    2
   111   139   147   am
   112   143   145   ar
   113   101    95    1
   114   101   100    1
   115    95    96    1
   116   104   103    1
   117    97    96    1
   118    97   102   am
   119   147   148    1
   120    20    21    1
   121    99   100    1
   122    99    96    1
   123   152   151    1
   124   103   102    1
   125   103   106    1
   126    22    21    2
   127    21    23   am
   128   148   151    1
   129   148   149    1
   130    32    33    2
   131    32    31    1
   132   157   158    1
   133   157   154    1
   134   153   149   am
   135   153   154    1
   136   106   107    1
   137    23    24    1
   138   149   150    2
   139   109   107   ar
   140   107   108   ar
   141   154   155    1
   142    31    30    1
   143    31    34    1
   144    30    25   am
   145    34    35    1
   146    35    37    1
   147    35    36    1
   148    25    24    1
   149    25    26    2
   150    24    27    1
   151   156   155    2
   152   155   159   am
   153   163   164    1
   154    27    28    1
   155    27    29    1
   156   159   160    1
   157   164   167    1
   158   164   165    1
   159   179   178    1
   160   179   173    1
   161   167   168    1
   162   160   161    1
   163   161   162    2
   164   178   177    1
   165   165   173   am
   166   165   166    2
   167   173   174    1
   168   170   168   ar
   169   170   172   ar
   170   168   169   ar
   171   177   174    1
   172   174   175    1
   173   206   204   ar
   174   206   207   ar
   175   204   202   ar
   176   172   171   ar
   177   207   205   ar
   178   202   201    1
   179   202   203   ar
   180   169   171   ar
   181   201   198    1
   182   205   203   ar
   183   176   175    2
   184   198   199    1
   185   198   197    1
   186   199   200    2
   187   197   193   am
   188   183   182    2
   189   193   192    1
   190   193   194    2
   191   180   181    1
   192   184   181    1
   193   184   185    1
   194   182   181    1
   195   182   191   am
   196   192   191    1
   197   192   195    1
   198   186   185   ar
   199   186   188   ar
   200   185   187   ar
   201   196   195    1
   202   188   190   ar
   203   187   189   ar
   204   190   189   ar
