@<TRIPOS>MOLECULE
tmp/2i78B00.pdb
 175 169 0 0 0
SMALL
GASTEIGER

@<TRIPOS>ATOM
      1  N        -12.6940   -1.0650   69.0540 N.3    87  ARG87      -0.1245
      2  CA       -13.7850   -0.3110   68.4750 C.3    87  ARG87       0.1563
      3  C        -14.9010   -0.0190   69.5050 C.2    87  ARG87       0.2260
      4  O        -15.4950    1.0530   69.4790 O.2    87  ARG87      -0.2867
      5  CB       -14.2850   -0.9530   67.1620 C.3    87  ARG87       0.0307
      6  CG       -15.7660   -0.8600   66.9080 C.3    87  ARG87       0.0489
      7  CD       -16.1640   -0.9970   65.4460 C.3    87  ARG87       0.2205
      8  NE       -15.3510   -1.9000   64.6140 N.pl3  87  ARG87      -0.0865
      9  CZ       -15.0480   -1.6090   63.3470 C.cat  87  ARG87       0.5346
     10  NH1      -15.4780   -0.4690   62.8250 N.pl3  87  ARG87       0.1354
     11  NH2      -14.3290   -2.4300   62.5970 N.pl3  87  ARG87       0.1354
     12  N        -15.0470   -7.6640   68.4200 N.3   167  GLU167     -0.1231
     13  CA       -15.1200   -7.1910   67.0660 C.3   167  GLU167      0.1699
     14  C        -16.0900   -7.9850   66.1940 C.2   167  GLU167      0.2592
     15  O        -16.6800   -7.4550   65.2530 O.2   167  GLU167     -0.2718
     16  CB       -13.7190   -7.2140   66.4440 C.3   167  GLU167      0.0402
     17  CG       -13.6940   -6.8630   64.9710 C.3   167  GLU167      0.1161
     18  CD       -13.9440   -5.3890   64.7000 C.2   167  GLU167      0.3649
     19  OE1      -14.0960   -4.6040   65.6820 O.co2 167  GLU167     -0.2457
     20  OE2      -13.9620   -5.0230   63.4970 O.co2 167  GLU167     -0.2457
     21  N        -16.2240   -9.2670   66.4820 N.am  168  GLU168     -0.1979
     22  CA       -16.7410  -10.1730   65.4660 C.3   168  GLU168      0.1602
     23  C        -18.0070  -10.8690   65.8710 C.2   168  GLU168      0.2287
     24  O        -18.7080  -11.3840   65.0140 O.2   168  GLU168     -0.2864
     25  CB       -15.6690  -11.1970   65.0600 C.3   168  GLU168      0.0415
     26  CG       -14.3650  -10.5910   64.5320 C.3   168  GLU168      0.1163
     27  CD       -14.5210   -9.8630   63.2060 C.2   168  GLU168      0.3649
     28  OE1      -15.6640   -9.5780   62.7850 O.co2 168  GLU168     -0.2457
     29  OE2      -13.4930   -9.5600   62.5810 O.co2 168  GLU168     -0.2457
     30  N        -20.1970   -7.4030   68.9160 N.3   171  SER171     -0.1217
     31  CA       -20.0080   -5.9930   68.5840 C.3   171  SER171      0.1889
     32  C        -20.1060   -5.1090   69.8170 C.2   171  SER171      0.2288
     33  O        -20.6610   -4.0110   69.7400 O.2   171  SER171     -0.2866
     34  CB       -21.0050   -5.5170   67.5210 C.3   171  SER171      0.2089
     35  OG       -20.7910   -6.2010   66.3070 O.3   171  SER171     -0.2183
     36  N        -24.6050  -11.3140   59.7930 N.3   319  PHE319     -0.1241
     37  CA       -23.2500  -11.4550   60.3250 C.3   319  PHE319      0.1605
     38  C        -23.1960  -12.5570   61.3640 C.2   319  PHE319      0.2264
     39  O        -22.1950  -13.2480   61.4650 O.2   319  PHE319     -0.2867
     40  CB       -22.7130  -10.1250   60.8700 C.3   319  PHE319      0.0534
     41  CG       -22.5020   -9.0790   59.8030 C.ar  319  PHE319     -0.0203
     42  CD1      -21.2840   -8.9940   59.1260 C.ar  319  PHE319     -0.0042
     43  CD2      -23.5260   -8.2030   59.4600 C.ar  319  PHE319     -0.0042
     44  CE1      -21.0670   -8.0310   58.1300 C.ar  319  PHE319     -0.0003
     45  CE2      -23.3370   -7.2520   58.4680 C.ar  319  PHE319     -0.0003
     46  CZ       -22.0890   -7.1620   57.7980 C.ar  319  PHE319     -0.0000
     47  N        -16.7260   -0.8110   49.1130 N.3   509  TYR509     -0.1241
     48  CA       -16.6580   -1.6030   50.3250 C.3   509  TYR509      0.1605
     49  C        -16.7630   -3.0540   49.8190 C.2   509  TYR509      0.2264
     50  O        -15.7710   -3.8140   49.8380 O.2   509  TYR509     -0.2867
     51  CB       -17.8220   -1.2160   51.2460 C.3   509  TYR509      0.0534
     52  CG       -18.1280   -2.1180   52.4500 C.ar  509  TYR509     -0.0201
     53  CD1      -17.2920   -3.1820   52.8100 C.ar  509  TYR509     -0.0009
     54  CD2      -19.2350   -1.8580   53.2640 C.ar  509  TYR509     -0.0009
     55  CE1      -17.5680   -3.9930   53.9120 C.ar  509  TYR509      0.0417
     56  CE2      -19.5210   -2.6570   54.3920 C.ar  509  TYR509      0.0417
     57  CZ       -18.6790   -3.7300   54.7030 C.ar  509  TYR509      0.1957
     58  OH       -18.9430   -4.5380   55.8060 O.3   509  TYR509     -0.2866
     59  N        -22.6920   -8.9790   52.8150 N.3   513  CYS513     -0.1235
     60  CA       -23.7980   -8.2420   53.4210 C.3   513  CYS513      0.1677
     61  C        -23.6330   -6.7280   53.3830 C.2   513  CYS513      0.2270
     62  O        -24.3180   -6.0100   54.1130 O.2   513  CYS513     -0.2867
     63  CB       -24.1270   -8.7290   54.8390 C.3   513  CYS513      0.0956
     64  SG       -25.8570   -8.4010   55.3170 S.3   513  CYS513     -0.0801
     65  N        -29.1490   -7.7810   52.0470 N.3   547  TYR547     -0.1241
     66  CA       -30.5520   -7.3290   52.1010 C.3   547  TYR547      0.1605
     67  C        -31.3470   -7.4960   50.7960 C.2   547  TYR547      0.2264
     68  O        -32.3750   -6.8290   50.5990 O.2   547  TYR547     -0.2867
     69  CB       -30.6580   -5.8880   52.6080 C.3   547  TYR547      0.0534
     70  CG       -29.7120   -5.5480   53.7290 C.ar  547  TYR547     -0.0201
     71  CD1      -29.9860   -5.9410   55.0400 C.ar  547  TYR547     -0.0009
     72  CD2      -28.5490   -4.8120   53.4890 C.ar  547  TYR547     -0.0009
     73  CE1      -29.1270   -5.6190   56.0830 C.ar  547  TYR547      0.0417
     74  CE2      -27.6880   -4.4840   54.5250 C.ar  547  TYR547      0.0417
     75  CZ       -27.9780   -4.8960   55.8140 C.ar  547  TYR547      0.1957
     76  OH       -27.1280   -4.5780   56.8480 O.3   547  TYR547     -0.2866
     77  N        -10.5220   -0.7310   54.4330 N.3   592  SER592     -0.1202
     78  CA       -10.8700   -2.0570   54.9630 C.3   592  SER592      0.2020
     79  C        -11.0310   -3.1450   53.9110 C.2   592  SER592      0.2618
     80  O        -10.1390   -3.3720   53.0840 O.2   592  SER592     -0.2717
     81  CB       -12.1500   -1.9820   55.7960 C.3   592  SER592      0.2103
     82  OG       -11.8550   -1.8650   57.1700 O.3   592  SER592     -0.2182
     83  N        -12.1670   -3.8420   53.9700 N.am  593  TYR593     -0.1975
     84  CA       -12.5490   -4.7840   52.9230 C.3   593  TYR593      0.1639
     85  C        -12.5610   -4.0610   51.5930 C.2   593  TYR593      0.2290
     86  O        -12.1340   -4.6100   50.5870 O.2   593  TYR593     -0.2864
     87  CB       -13.9240   -5.4000   53.1970 C.3   593  TYR593      0.0560
     88  CG       -14.1820   -6.6590   52.4050 C.ar  593  TYR593     -0.0198
     89  CD1      -14.4770   -6.6060   51.0420 C.ar  593  TYR593     -0.0009
     90  CD2      -14.1410   -7.9010   53.0190 C.ar  593  TYR593     -0.0009
     91  CE1      -14.7210   -7.7520   50.3170 C.ar  593  TYR593      0.0417
     92  CE2      -14.3640   -9.0610   52.2940 C.ar  593  TYR593      0.0417
     93  CZ       -14.6570   -8.9680   50.9450 C.ar  593  TYR593      0.1957
     94  OH       -14.8740  -10.1010   50.2290 O.3   593  TYR593     -0.2866
     95  N         -7.1050   -5.4250   53.9360 N.3   618  VAL618     -0.1245
     96  CA        -6.7220   -6.8250   53.9900 C.3   618  VAL618      0.1561
     97  C         -5.8790   -7.1000   52.7380 C.2   618  VAL618      0.2260
     98  O         -6.1220   -6.4960   51.6960 O.2   618  VAL618     -0.2867
     99  CB        -7.9750   -7.7260   54.0030 C.3   618  VAL618      0.0252
    100  CG1       -7.6510   -9.1570   53.5400 C.3   618  VAL618      0.0019
    101  CG2       -8.6160   -7.7170   55.3820 C.3   618  VAL618      0.0019
    102  N         -6.0670  -13.5540   53.3390 N.3   621  TRP621     -0.1241
    103  CA        -7.0660  -13.8830   54.3510 C.3   621  TRP621      0.1605
    104  C         -6.5300  -14.5390   55.6130 C.2   621  TRP621      0.2264
    105  O         -7.0960  -14.3580   56.6860 O.2   621  TRP621     -0.2867
    106  CB        -8.2860  -14.5870   53.7340 C.3   621  TRP621      0.0550
    107  CG        -9.0740  -13.5790   52.9210 C.ar  621  TRP621      0.0003
    108  CD1       -9.1510  -13.4910   51.5580 C.ar  621  TRP621      0.0946
    109  CD2       -9.8390  -12.4770   53.4320 C.ar  621  TRP621      0.0152
    110  NE1       -9.9280  -12.4190   51.1930 N.ar  621  TRP621     -0.2442
    111  CE2      -10.3620  -11.7800   52.3240 C.ar  621  TRP621      0.0810
    112  CE3      -10.1350  -12.0120   54.7210 C.ar  621  TRP621      0.0012
    113  CZ2      -11.1680  -10.6430   52.4670 C.ar  621  TRP621      0.0191
    114  CZ3      -10.9380  -10.8810   54.8540 C.ar  621  TRP621      0.0001
    115  CH2      -11.4480  -10.2200   53.7340 C.ar  621  TRP621      0.0015
    116  N         -6.0720  -12.2720   58.6050 N.3   624  TYR624     -0.1241
    117  CA        -7.2370  -11.7420   59.3000 C.3   624  TYR624      0.1605
    118  C         -7.8340  -12.7360   60.3130 C.2   624  TYR624      0.2264
    119  O         -7.4800  -13.9160   60.3010 O.2   624  TYR624     -0.2867
    120  CB        -8.2770  -11.1900   58.3070 C.3   624  TYR624      0.0534
    121  CG        -9.1580  -10.1360   58.9290 C.ar  624  TYR624     -0.0201
    122  CD1       -8.6120   -8.9790   59.5030 C.ar  624  TYR624     -0.0009
    123  CD2      -10.5380  -10.2950   58.9670 C.ar  624  TYR624     -0.0009
    124  CE1       -9.4300   -8.0190   60.0930 C.ar  624  TYR624      0.0417
    125  CE2      -11.3570   -9.3370   59.5510 C.ar  624  TYR624      0.0417
    126  CZ       -10.8070   -8.2140   60.1080 C.ar  624  TYR624      0.1957
    127  OH       -11.6510   -7.2920   60.6800 O.3   624  TYR624     -0.2866
    128  N        -14.3320  -13.7530   61.5140 N.3   628  TYR628     -0.1241
    129  CA       -14.8210  -13.1140   60.2980 C.3   628  TYR628      0.1605
    130  C        -14.4150  -13.9330   59.0740 C.2   628  TYR628      0.2264
    131  O        -15.2590  -14.2970   58.2580 O.2   628  TYR628     -0.2867
    132  CB       -14.3160  -11.6730   60.1750 C.3   628  TYR628      0.0534
    133  CG       -14.7690  -10.9640   58.9160 C.ar  628  TYR628     -0.0201
    134  CD1      -14.0500  -11.0800   57.7420 C.ar  628  TYR628     -0.0009
    135  CD2      -15.9360  -10.1940   58.9000 C.ar  628  TYR628     -0.0009
    136  CE1      -14.4570  -10.4340   56.5860 C.ar  628  TYR628      0.0417
    137  CE2      -16.3660   -9.5400   57.7390 C.ar  628  TYR628      0.0417
    138  CZ       -15.6120   -9.6680   56.5900 C.ar  628  TYR628      0.1957
    139  OH       -15.9940   -9.0380   55.4300 O.3   628  TYR628     -0.2866
    140  N        -15.8950  -17.5350   58.5880 N.3   631  ARG631     -0.1245
    141  CA       -17.3200  -17.4680   58.2920 C.3   631  ARG631      0.1563
    142  C        -17.5770  -17.6090   56.7990 C.2   631  ARG631      0.2260
    143  O        -18.4680  -18.3570   56.3770 O.2   631  ARG631     -0.2867
    144  CB       -17.9080  -16.1470   58.7540 C.3   631  ARG631      0.0307
    145  CG       -19.4160  -16.1330   58.7800 C.3   631  ARG631      0.0489
    146  CD       -19.8760  -15.3110   59.9530 C.3   631  ARG631      0.2205
    147  NE       -19.5810  -13.9080   59.7230 N.pl3 631  ARG631     -0.0865
    148  CZ       -19.1950  -13.0320   60.6460 C.cat 631  ARG631      0.5346
    149  NH1      -19.0330  -13.3720   61.9270 N.pl3 631  ARG631      0.1354
    150  NH2      -18.9630  -11.7900   60.2500 N.pl3 631  ARG631      0.1354
    151  N         -6.5920   -4.2630   64.1700 N.3   672  ASN672     -0.1225
    152  CA        -7.6720   -4.9720   63.4720 C.3   672  ASN672      0.1785
    153  C         -7.1800   -5.5940   62.1330 C.2   672  ASN672      0.2597
    154  O         -7.0220   -6.8160   62.0240 O.2   672  ASN672     -0.2718
    155  CB        -8.8550   -4.0060   63.3050 C.3   672  ASN672      0.1169
    156  CG       -10.0990   -4.6650   62.7590 C.2   672  ASN672      0.2627
    157  OD1      -10.0300   -5.7050   62.0790 O.2   672  ASN672     -0.2716
    158  ND2      -11.2690   -4.0530   63.0370 N.am  672  ASN672     -0.0877
    159  N         -6.9280   -4.7620   61.1310 N.am  673  VAL673     -0.1980
    160  CA        -6.2150   -5.1960   59.9510 C.3   673  VAL673      0.1595
    161  C         -4.7770   -4.7610   60.1780 C.2   673  VAL673      0.2287
    162  O         -4.4410   -3.6130   59.9500 O.2   673  VAL673     -0.2864
    163  CB        -6.7370   -4.4970   58.6780 C.3   673  VAL673      0.0276
    164  CG1       -5.9940   -5.0090   57.4720 C.3   673  VAL673      0.0022
    165  CG2       -8.2370   -4.7130   58.5210 C.3   673  VAL673      0.0022
    166  N         -7.1920    1.2220   63.0000 N.3   702  HIS702     -0.1241
    167  CA        -8.0240    1.0000   61.8160 C.3   702  HIS702      0.1621
    168  C         -8.9220    2.1770   61.4350 C.2   702  HIS702      0.2264
    169  O         -9.2280    2.3590   60.2590 O.2   702  HIS702     -0.2867
    170  CB        -8.8780   -0.2350   62.0150 C.3   702  HIS702      0.0745
    171  CG        -9.3460   -0.8500   60.7420 C.ar  702  HIS702      0.0817
    172  ND1       -8.4790   -1.2550   59.7490 N.ar  702  HIS702     -0.2268
    173  CD2      -10.5900   -1.1510   60.3050 C.ar  702  HIS702      0.1154
    174  CE1       -9.1710   -1.7610   58.7480 C.ar  702  HIS702      0.1986
    175  NE2      -10.4520   -1.7260   59.0680 N.ar  702  HIS702     -0.2212
@<TRIPOS>BOND
     1    47    48    1
     2    49    50    2
     3    49    48    1
     4    94    93    1
     5    91    93   ar
     6    91    89   ar
     7    48    51    1
     8    86    85    2
     9    68    67    2
    10    67    66    1
    11    93    92   ar
    12    89    88   ar
    13   110   108   ar
    14   110   111   ar
    15    51    52    1
    16   108   107   ar
    17    85    84    1
    18    98    97    2
    19    65    66    1
    20    66    69    1
    21    92    90   ar
    22   111   113   ar
    23   111   109   ar
    24    88    90   ar
    25    88    87    1
    26    52    53   ar
    27    52    54   ar
    28   113   115   ar
    29    69    70    1
    30    97    96    1
    31    53    55   ar
    32    59    60    1
    33   107   109   ar
    34   107   106    1
    35    84    87    1
    36    84    83    1
    37    80    79    2
    38    54    56   ar
    39   102   103    1
    40    61    60    1
    41    61    62    2
    42    60    63    1
    43   109   112   ar
    44    72    70   ar
    45    72    74   ar
    46   100    99    1
    47    70    71   ar
    48   106   103    1
    49   115   114   ar
    50    79    83   am
    51    79    78    1
    52    55    57   ar
    53    95    96    1
    54    96    99    1
    55    99   101    1
    56   103   104    1
    57    56    57   ar
    58    77    78    1
    59    74    75   ar
    60    57    58    1
    61   112   114   ar
    62    63    64    1
    63    78    81    1
    64    71    73   ar
    65   139   138    1
    66   104   105    2
    67    81    82    1
    68    75    73   ar
    69    75    76    1
    70   143   142    2
    71   136   138   ar
    72   136   134   ar
    73   138   137   ar
    74   142   141    1
    75   164   163    1
    76   137   135   ar
    77   134   133   ar
    78    46    44   ar
    79    46    45   ar
    80    44    42   ar
    81   131   130    2
    82   141   140    1
    83   141   144    1
    84   120   121    1
    85   120   117    1
    86    45    43   ar
    87   165   163    1
    88   116   117    1
    89   163   160    1
    90   174   175   ar
    91   174   172   ar
    92   144   145    1
    93   145   146    1
    94   135   133   ar
    95   133   132    1
    96   121   123   ar
    97   121   122   ar
    98   123   125   ar
    99   175   173   ar
   100   130   129    1
   101    42    41   ar
   102   117   118    1
   103    43    41   ar
   104   122   124   ar
   105   125   126   ar
   106   147   146    1
   107   147   148    2
   108   172   171   ar
   109    36    37    1
   110    41    40    1
   111   162   161    2
   112   160   161    1
   113   160   159    1
   114   124   126   ar
   115   126   127    1
   116   132   129    1
   117   150   148    1
   118   169   168    2
   119   129   128    1
   120   119   118    2
   121   173   171   ar
   122    37    40    1
   123    37    38    1
   124   148   149    1
   125   171   170    1
   126   159   153   am
   127    38    39    2
   128   168   167    1
   129   167   170    1
   130   167   166    1
   131   154   153    2
   132   157   156    2
   133   153   152    1
   134    29    27   ar
   135    11     9    1
   136   156   158   am
   137   156   155    1
   138    28    27   ar
   139    10     9    1
   140    27    26    1
   141   155   152    1
   142     9     8    2
   143   152   151    1
   144    20    18   ar
   145    26    25    1
   146     8     7    1
   147    18    17    1
   148    18    19   ar
   149    17    16    1
   150    24    23    2
   151    25    22    1
   152    15    14    2
   153     7     6    1
   154    22    23    1
   155    22    21    1
   156    14    21   am
   157    14    13    1
   158    35    34    1
   159    16    13    1
   160     6     5    1
   161    13    12    1
   162     5     2    1
   163    34    31    1
   164     2     1    1
   165     2     3    1
   166    31    30    1
   167    31    32    1
   168     4     3    2
   169    33    32    2
