@<TRIPOS>MOLECULE
tmp/2i79B00.pdb
 211 209 0 0 0
SMALL
GASTEIGER

@<TRIPOS>ATOM
      1  N         78.0730   42.5310   12.5740 N.3    29  THR29      -0.1218
      2  CA        78.6740   43.8560   12.3620 C.3    29  THR29       0.1862
      3  C         80.1030   43.6870   11.8710 C.2    29  THR29       0.2287
      4  O         80.6330   42.5520   11.8230 O.2    29  THR29      -0.2866
      5  CB        78.6780   44.7470   13.6710 C.3    29  THR29       0.1770
      6  OG1       79.6340   44.2320   14.6140 O.3    29  THR29      -0.2211
      7  CG2       77.2770   44.7940   14.3450 C.3    29  THR29       0.0375
      8  N         82.1850   46.1470   13.4190 N.3    31  PHE31      -0.1227
      9  CA        82.6350   47.1000   14.4440 C.3    31  PHE31       0.1736
     10  C         83.8640   46.6390   15.2440 C.2    31  PHE31       0.2596
     11  O         84.5200   47.4710   15.9170 O.2    31  PHE31      -0.2718
     12  CB        81.5230   47.3700   15.4640 C.3    31  PHE31       0.0547
     13  CG        80.4190   48.3130   14.9840 C.ar   31  PHE31      -0.0202
     14  CD1       80.7050   49.5260   14.3590 C.ar   31  PHE31      -0.0042
     15  CD2       79.0970   48.0190   15.2620 C.ar   31  PHE31      -0.0042
     16  CE1       79.6770   50.3930   13.9690 C.ar   31  PHE31      -0.0003
     17  CE2       78.0510   48.8920   14.8960 C.ar   31  PHE31      -0.0003
     18  CZ        78.3440   50.0690   14.2410 C.ar   31  PHE31      -0.0000
     19  N         84.1360   45.3290   15.2230 N.am   32  THR32      -0.1953
     20  CA        85.3140   44.7640   15.8960 C.3    32  THR32       0.1897
     21  C         86.1290   43.9710   14.9110 C.2    32  THR32       0.2313
     22  O         85.7660   43.8820   13.7540 O.2    32  THR32      -0.2863
     23  CB        84.9150   43.8200   17.0270 C.3    32  THR32       0.1794
     24  OG1       84.5640   42.5520   16.4730 O.3    32  THR32      -0.2208
     25  CG2       83.7250   44.4020   17.8270 C.3    32  THR32       0.0378
     26  N         89.7190   45.0020   27.2620 N.3    90  LEU90      -0.1231
     27  CA        88.2780   44.7190   27.2800 C.3    90  LEU90       0.1693
     28  C         87.7160   44.4160   25.9080 C.2    90  LEU90       0.2592
     29  O         88.0720   45.0870   24.9450 O.2    90  LEU90      -0.2718
     30  CB        87.4850   45.9260   27.8190 C.3    90  LEU90       0.0284
     31  CG        87.0510   45.9350   29.2850 C.3    90  LEU90       0.0019
     32  CD1       85.8070   45.0980   29.4910 C.3    90  LEU90       0.0001
     33  CD2       88.1980   45.4490   30.1110 C.3    90  LEU90       0.0001
     34  N         86.8200   43.4310   25.8530 N.am   91  PHE91      -0.1962
     35  CA        86.0430   43.1180   24.6600 C.3    91  PHE91       0.1771
     36  C         84.6040   42.7540   25.0690 C.2    91  PHE91       0.2619
     37  O         84.3970   41.8460   25.8730 O.2    91  PHE91      -0.2715
     38  CB        86.6770   41.9390   23.9170 C.3    91  PHE91       0.0574
     39  CG        85.9100   41.4870   22.6910 C.ar   91  PHE91      -0.0200
     40  CD1       86.0190   42.1770   21.4830 C.ar   91  PHE91      -0.0042
     41  CD2       85.1100   40.3620   22.7310 C.ar   91  PHE91      -0.0042
     42  CE1       85.3080   41.7560   20.3420 C.ar   91  PHE91      -0.0003
     43  CE2       84.4320   39.9190   21.5970 C.ar   91  PHE91      -0.0003
     44  CZ        84.5320   40.6210   20.4030 C.ar   91  PHE91      -0.0000
     45  N         83.6150   43.4700   24.5240 N.am   92  ILE92      -0.1963
     46  CA        82.2170   43.1590   24.7620 C.3    92  ILE92       0.1727
     47  C         81.5150   43.0390   23.4530 C.2    92  ILE92       0.2616
     48  O         81.6670   43.9030   22.5820 O.2    92  ILE92      -0.2715
     49  CB        81.4780   44.2700   25.5330 C.3    92  ILE92       0.0290
     50  CG1       82.1200   44.4980   26.8960 C.3    92  ILE92       0.0022
     51  CG2       80.0200   43.8850   25.7820 C.3    92  ILE92       0.0023
     52  CD1       81.3360   45.4980   27.7720 C.3    92  ILE92       0.0001
     53  N         80.7010   42.0040   23.3190 N.am   93  VAL93      -0.1963
     54  CA        79.7870   41.9440   22.1880 C.3    93  VAL93       0.1727
     55  C         78.4370   41.3580   22.6210 C.2    93  VAL93       0.2616
     56  O         78.3810   40.3890   23.3750 O.2    93  VAL93      -0.2715
     57  CB        80.4360   41.2100   20.9890 C.3    93  VAL93       0.0290
     58  CG1       80.8880   39.7850   21.4120 C.3    93  VAL93       0.0023
     59  CG2       79.4930   41.2130   19.7740 C.3    93  VAL93       0.0023
     60  N         77.3490   42.0030   22.1810 N.am   94  ILE94      -0.1977
     61  CA        75.9710   41.5360   22.4360 C.3    94  ILE94       0.1596
     62  C         75.3070   41.1110   21.1110 C.2    94  ILE94       0.2287
     63  O         75.5700   41.7060   20.0700 O.2    94  ILE94      -0.2864
     64  CB        75.1120   42.6480   23.1030 C.3    94  ILE94       0.0276
     65  CG1       75.7750   43.1380   24.4110 C.3    94  ILE94       0.0022
     66  CG2       73.7460   42.1360   23.3750 C.3    94  ILE94       0.0022
     67  CD1       75.9060   42.0950   25.4810 C.3    94  ILE94       0.0001
     68  N         69.3960   42.0590   20.5800 N.3    98  TYR98      -0.1227
     69  CA        69.2000   42.4470   21.9940 C.3    98  TYR98       0.1736
     70  C         69.7870   43.7880   22.3770 C.2    98  TYR98       0.2595
     71  O         69.7960   44.1510   23.5480 O.2    98  TYR98      -0.2718
     72  CB        69.7990   41.3780   22.8920 C.3    98  TYR98       0.0548
     73  CG        69.2730   40.0160   22.5590 C.ar   98  TYR98      -0.0200
     74  CD1       67.9040   39.7770   22.5870 C.ar   98  TYR98      -0.0009
     75  CD2       70.1270   38.9610   22.2120 C.ar   98  TYR98      -0.0009
     76  CE1       67.3850   38.5260   22.2950 C.ar   98  TYR98       0.0417
     77  CE2       69.6030   37.6780   21.9160 C.ar   98  TYR98       0.0417
     78  CZ        68.2350   37.4870   21.9670 C.ar   98  TYR98       0.1957
     79  OH        67.6660   36.2660   21.6890 O.3    98  TYR98      -0.2866
     80  N         70.2790   44.5310   21.4030 N.am   99  TRP99      -0.1962
     81  CA        70.8840   45.8250   21.6820 C.3    99  TRP99       0.1771
     82  C         69.9390   46.8550   22.2970 C.2    99  TRP99       0.2619
     83  O         68.7100   46.8110   22.1170 O.2    99  TRP99      -0.2715
     84  CB        71.4470   46.4350   20.3960 C.3    99  TRP99       0.0590
     85  CG        72.6580   45.7530   19.8400 C.ar   99  TRP99       0.0006
     86  CD1       73.3720   44.7690   20.4070 C.ar   99  TRP99       0.0946
     87  CD2       73.2670   46.0310   18.5830 C.ar   99  TRP99       0.0152
     88  NE1       74.4220   44.4120   19.5940 N.ar   99  TRP99      -0.2442
     89  CE2       74.3710   45.1660   18.4550 C.ar   99  TRP99       0.0810
     90  CE3       72.9600   46.9020   17.5310 C.ar   99  TRP99       0.0012
     91  CZ2       75.1830   45.1520   17.3290 C.ar   99  TRP99       0.0191
     92  CZ3       73.7750   46.9100   16.4270 C.ar   99  TRP99       0.0001
     93  CH2       74.8810   46.0420   16.3310 C.ar   99  TRP99       0.0015
     94  N         70.5570   47.8050   22.9920 N.am  100  ASN100     -0.1972
     95  CA        69.8670   48.9010   23.6700 C.3   100  ASN100      0.1688
     96  C         68.8660   48.4510   24.7180 C.2   100  ASN100      0.2292
     97  O         67.9220   49.1760   24.9990 O.2   100  ASN100     -0.2864
     98  CB        69.2340   49.8530   22.6420 C.3   100  ASN100      0.1181
     99  CG        70.2650   50.4520   21.7110 C.2   100  ASN100      0.2629
    100  OD1       70.1420   50.3940   20.4850 O.2   100  ASN100     -0.2716
    101  ND2       71.2860   51.0160   22.2840 N.am  100  ASN100     -0.0877
    102  N         70.2620   47.3160   27.7730 N.3   102  GLY102     -0.1210
    103  CA        71.0130   47.3670   29.0260 C.3   102  GLY102      0.1956
    104  C         71.9470   46.1830   29.3090 C.2   102  GLY102      0.2612
    105  O         72.5640   46.1480   30.3580 O.2   102  GLY102     -0.2717
    106  N         72.0310   45.2180   28.3970 N.am  103  LEU103     -0.1965
    107  CA        72.8720   44.0360   28.5990 C.3   103  LEU103      0.1728
    108  C         74.3620   44.3730   28.5960 C.2   103  LEU103      0.2617
    109  O         75.1090   43.9200   29.4610 O.2   103  LEU103     -0.2715
    110  CB        72.6300   42.9860   27.5120 C.3   103  LEU103      0.0311
    111  CG        71.7480   41.7700   27.8060 C.3   103  LEU103      0.0022
    112  CD1       70.3570   42.1330   28.2530 C.3   103  LEU103      0.0001
    113  CD2       71.6930   40.8700   26.5430 C.3   103  LEU103      0.0001
    114  N         74.7910   45.1360   27.6010 N.am  104  GLY104     -0.1940
    115  CA        76.1720   45.6070   27.5530 C.3   104  GLY104      0.2014
    116  C         76.6080   46.3140   28.8180 C.2   104  GLY104      0.2639
    117  O         77.7560   46.1350   29.2740 O.2   104  GLY104     -0.2714
    118  N         75.7220   47.1370   29.3790 N.am  105  SER105     -0.1949
    119  CA        75.9890   47.7860   30.6720 C.3   105  SER105      0.1924
    120  C         76.1160   46.8450   31.8480 C.2   105  SER105      0.2314
    121  O         77.0120   47.0310   32.6670 O.2   105  SER105     -0.2863
    122  CB        74.9130   48.8230   31.0250 C.3   105  SER105      0.2116
    123  OG        75.0330   49.9330   30.1870 O.3   105  SER105     -0.2180
    124  N         90.8060   49.6610   25.8030 N.3   126  LEU126     -0.1231
    125  CA        90.3740   49.0900   24.5160 C.3   126  LEU126      0.1693
    126  C         90.4380   50.1510   23.4340 C.2   126  LEU126      0.2593
    127  O         90.6930   51.3040   23.7200 O.2   126  LEU126     -0.2718
    128  CB        88.9420   48.5230   24.5880 C.3   126  LEU126      0.0284
    129  CG        87.7050   49.4390   24.7470 C.3   126  LEU126      0.0019
    130  CD1       86.5400   48.5970   24.3940 C.3   126  LEU126      0.0001
    131  CD2       87.5420   50.0050   26.1590 C.3   126  LEU126      0.0001
    132  N         90.2770   49.7480   22.1870 N.am  127  THR127     -0.1939
    133  CA        90.1130   50.6940   21.0990 C.3   127  THR127      0.2028
    134  C         88.6840   50.4810   20.5750 C.2   127  THR127      0.2642
    135  O         88.1520   49.3520   20.5920 O.2   127  THR127     -0.2714
    136  CB        91.2070   50.5600   19.9770 C.3   127  THR127      0.1808
    137  OG1       91.0890   49.3010   19.3490 O.3   127  THR127     -0.2208
    138  CG2       92.6260   50.6520   20.5280 C.3   127  THR127      0.0379
    139  N         88.0270   51.5870   20.2370 N.am  128  VAL128     -0.1977
    140  CA        86.7090   51.5690   19.6760 C.3   128  VAL128      0.1596
    141  C         86.7460   52.3420   18.3490 C.2   128  VAL128      0.2287
    142  O         87.3440   53.4070   18.2660 O.2   128  VAL128     -0.2864
    143  CB        85.7090   52.2130   20.6280 C.3   128  VAL128      0.0276
    144  CG1       84.2950   52.2830   19.9770 C.3   128  VAL128      0.0022
    145  CG2       85.6230   51.4150   21.8900 C.3   128  VAL128      0.0022
    146  N         81.4950   54.0970   15.9700 N.3   132  ASN132     -0.1225
    147  CA        80.6600   53.1740   16.7480 C.3   132  ASN132      0.1785
    148  C         80.1210   53.8730   17.9770 C.2   132  ASN132      0.2597
    149  O         80.6750   53.7670   19.0800 O.2   132  ASN132     -0.2718
    150  CB        81.4890   51.9400   17.1100 C.3   132  ASN132      0.1169
    151  CG        80.7120   50.8830   17.8210 C.2   132  ASN132      0.2627
    152  OD1       79.4930   50.9860   18.0320 O.2   132  ASN132     -0.2716
    153  ND2       81.4090   49.8240   18.1850 N.am  132  ASN132     -0.0877
    154  N         79.0070   54.5800   17.7790 N.am  133  GLN133     -0.1965
    155  CA        78.4570   55.4910   18.7810 C.3   133  GLN133      0.1733
    156  C         77.9040   54.8270   20.0100 C.2   133  GLN133      0.2616
    157  O         78.0180   55.3670   21.1000 O.2   133  GLN133     -0.2715
    158  CB        77.3480   56.3510   18.1770 C.3   133  GLN133      0.0408
    159  CG        77.7680   57.1570   16.9560 C.3   133  GLN133      0.0908
    160  CD        78.6270   58.3050   17.3110 C.2   133  GLN133      0.2608
    161  OE1       78.8930   58.5840   18.5070 O.2   133  GLN133     -0.2717
    162  NE2       79.0800   59.0140   16.2800 N.am  133  GLN133     -0.0878
    163  N         77.2900   53.6650   19.8430 N.am  134  ALA134     -0.1963
    164  CA        76.6700   52.9860   20.9700 C.3   134  ALA134      0.1728
    165  C         77.7740   52.5050   21.9120 C.2   134  ALA134      0.2616
    166  O         77.6390   52.5880   23.1290 O.2   134  ALA134     -0.2715
    167  CB        75.7910   51.8190   20.4710 C.3   134  ALA134      0.0334
    168  N         78.8680   52.0100   21.3190 N.am  135  ALA135     -0.1977
    169  CA        80.0520   51.5570   22.0600 C.3   135  ALA135      0.1597
    170  C         80.7410   52.7090   22.7870 C.2   135  ALA135      0.2287
    171  O         81.0030   52.6310   24.0010 O.2   135  ALA135     -0.2864
    172  CB        81.0220   50.8190   21.1430 C.3   135  ALA135      0.0319
    173  N         79.5290   55.5540   23.7140 N.3   137  HIS137     -0.1226
    174  CA        78.6290   55.9850   24.7660 C.3   137  HIS137      0.1752
    175  C         78.6080   55.0120   25.9400 C.2   137  HIS137      0.2596
    176  O         78.7160   55.4190   27.0950 O.2   137  HIS137     -0.2718
    177  CB        77.2140   56.1880   24.2020 C.3   137  HIS137      0.0759
    178  CG        76.2720   56.7890   25.1900 C.ar  137  HIS137      0.0818
    179  ND1       75.7310   56.0650   26.2310 N.ar  137  HIS137     -0.2268
    180  CD2       75.8090   58.0540   25.3270 C.ar  137  HIS137      0.1154
    181  CE1       74.9680   56.8550   26.9650 C.ar  137  HIS137      0.1986
    182  NE2       74.9910   58.0650   26.4350 N.ar  137  HIS137     -0.2212
    183  N         78.4780   53.7220   25.6450 N.am  138  LEU138     -0.1966
    184  CA        78.5230   52.6950   26.6950 C.3   138  LEU138      0.1728
    185  C         79.7890   52.8000   27.5650 C.2   138  LEU138      0.2616
    186  O         79.7160   52.7250   28.7930 O.2   138  LEU138     -0.2715
    187  CB        78.3760   51.2840   26.0910 C.3   138  LEU138      0.0311
    188  CG        78.6760   50.0750   26.9770 C.3   138  LEU138      0.0022
    189  CD1       77.5950   49.8430   27.9930 C.3   138  LEU138      0.0001
    190  CD2       78.9250   48.8300   26.1390 C.3   138  LEU138      0.0001
    191  N         80.9470   52.9780   26.9380 N.am  139  TYR139     -0.1974
    192  CA        82.1890   52.9810   27.6950 C.3   139  TYR139      0.1639
    193  C         82.3750   54.2740   28.4870 C.2   139  TYR139      0.2290
    194  O         82.7280   54.2450   29.6640 O.2   139  TYR139     -0.2864
    195  CB        83.3890   52.6680   26.7800 C.3   139  TYR139      0.0560
    196  CG        83.4910   51.1940   26.4410 C.ar  139  TYR139     -0.0198
    197  CD1       83.8280   50.2690   27.4300 C.ar  139  TYR139     -0.0009
    198  CD2       83.2600   50.7220   25.1420 C.ar  139  TYR139     -0.0009
    199  CE1       83.9330   48.9080   27.1420 C.ar  139  TYR139      0.0417
    200  CE2       83.3510   49.3560   24.8410 C.ar  139  TYR139      0.0417
    201  CZ        83.6780   48.4540   25.8480 C.ar  139  TYR139      0.1957
    202  OH        83.8210   47.1000   25.5950 O.3   139  TYR139     -0.2866
    203  N         80.0220   56.0400   29.5980 N.3   141  LYS141     -0.1245
    204  CA        79.0430   55.9440   30.6780 C.3   141  LYS141      0.1561
    205  C         79.6380   55.2660   31.9040 C.2   141  LYS141      0.2260
    206  O         79.2420   55.5490   33.0220 O.2   141  LYS141     -0.2867
    207  CB        77.7930   55.1900   30.2010 C.3   141  LYS141      0.0271
    208  CG        76.8410   54.7580   31.3340 C.3   141  LYS141      0.0035
    209  CD        75.4090   54.4270   30.8570 C.3   141  LYS141      0.0206
    210  CE        75.1000   52.9260   30.8470 C.3   141  LYS141      0.1093
    211  NZ        73.6790   52.5850   31.2320 N.3   141  LYS141     -0.1314
@<TRIPOS>BOND
     1     4     3    2
     2     3     2    1
     3     2     1    1
     4     2     5    1
     5     8     9    1
     6     5     7    1
     7     5     6    1
     8    22    21    2
     9    16    18   ar
    10    16    14   ar
    11    18    17   ar
    12    14    13   ar
    13     9    10    1
    14     9    12    1
    15    17    15   ar
    16    21    20    1
    17    13    15   ar
    18    13    12    1
    19    19    10   am
    20    19    20    1
    21    10    11    2
    22    20    23    1
    23   146   147    1
    24   162   160   am
    25    93    92   ar
    26    93    91   ar
    27    92    90   ar
    28    24    23    1
    29   147   150    1
    30   147   148    1
    31   159   160    1
    32   159   158    1
    33    23    25    1
    34   150   151    1
    35   160   161    2
    36    91    89   ar
    37    90    87   ar
    38   154   148   am
    39   154   155    1
    40   151   152    2
    41   151   153   am
    42   148   149    2
    43   158   155    1
    44   142   141    2
    45   141   140    1
    46    89    87   ar
    47    89    88   ar
    48    87    85   ar
    49   155   156    1
    50   137   136    1
    51    88    86   ar
    52   140   139    1
    53   140   143    1
    54    59    57    1
    55    85    84    1
    56    85    86   ar
    57   163   156   am
    58   163   164    1
    59   144   143    1
    60   136   138    1
    61   136   133    1
    62   156   157    2
    63    63    62    2
    64   139   134   am
    65    42    44   ar
    66    42    40   ar
    67    84    81    1
    68    44    43   ar
    69   167   164    1
    70   100    99    2
    71   134   135    2
    72   134   133    1
    73    68    69    1
    74   143   145    1
    75   164   165    1
    76    57    58    1
    77    57    54    1
    78   133   132    1
    79    62    61    1
    80   172   169    1
    81   168   165   am
    82   168   169    1
    83    80    81    1
    84    80    70   am
    85    40    39   ar
    86    43    41   ar
    87    81    82    1
    88    79    78    1
    89    99   101   am
    90    99    98    1
    91   165   166    2
    92    77    78   ar
    93    77    75   ar
    94    78    76   ar
    95    69    70    1
    96    69    72    1
    97   169   170    1
    98    83    82    2
    99    60    61    1
   100    60    55   am
   101   132   126   am
   102    54    55    1
   103    54    53    1
   104    75    73   ar
   105    76    74   ar
   106    82    94   am
   107    70    71    2
   108    61    64    1
   109    73    74   ar
   110    73    72    1
   111    48    47    2
   112    55    56    2
   113    98    95    1
   114    39    41   ar
   115    39    38    1
   116   170   171    2
   117    94    95    1
   118    64    66    1
   119    64    65    1
   120    53    47   am
   121   126   127    2
   122   126   125    1
   123    47    46    1
   124    95    96    1
   125   173   174    1
   126    38    35    1
   127   177   174    1
   128   177   178    1
   129   130   129    1
   130    65    67    1
   131   125   128    1
   132   125   124    1
   133    45    46    1
   134    45    36   am
   135   128   129    1
   136    35    36    1
   137    35    34    1
   138    96    97    2
   139   129   131    1
   140    46    49    1
   141   174   175    1
   142   200   198   ar
   143   200   201   ar
   144    29    28    2
   145    36    37    2
   146   198   196   ar
   147   178   180   ar
   148   178   179   ar
   149   180   182   ar
   150    49    51    1
   151    49    50    1
   152   202   201    1
   153   183   175   am
   154   183   184    1
   155   201   199   ar
   156    34    28   am
   157    28    27    1
   158   175   176    2
   159   187   184    1
   160   187   188    1
   161   190   188    1
   162   179   181   ar
   163   182   181   ar
   164   196   195    1
   165   196   197   ar
   166   113   111    1
   167   184   185    1
   168   195   192    1
   169    50    52    1
   170   191   185   am
   171   191   192    1
   172   188   189    1
   173   199   197   ar
   174    26    27    1
   175    27    30    1
   176   110   111    1
   177   110   107    1
   178   115   114    1
   179   115   116    1
   180   185   186    2
   181   114   108   am
   182   192   193    1
   183   102   103    1
   184   111   112    1
   185    30    31    1
   186   106   107    1
   187   106   104   am
   188   193   194    2
   189   108   107    1
   190   108   109    2
   191   116   117    2
   192   116   118   am
   193   103   104    1
   194    31    32    1
   195    31    33    1
   196   104   105    2
   197   118   119    1
   198   203   204    1
   199   123   122    1
   200   207   204    1
   201   207   208    1
   202   119   122    1
   203   119   120    1
   204   204   205    1
   205   210   209    1
   206   210   211    1
   207   209   208    1
   208   120   121    2
   209   205   206    2
