@<TRIPOS>MOLECULE
tmp/2i7dA00.pdb
 159 153 0 0 0
SMALL
GASTEIGER

@<TRIPOS>ATOM
      1  N         52.5190  -21.8720   11.4700 N.3     8  ASP8       -0.1239
      2  CA        51.5660  -22.9220   11.9240 C.3     8  ASP8        0.1674
      3  C         52.1330  -24.3380   11.5990 C.2     8  ASP8        0.2266
      4  O         53.0150  -24.4540   10.7180 O.2     8  ASP8       -0.2867
      5  CB        50.2450  -22.6580   11.1750 C.3     8  ASP8        0.1410
      6  CG        49.1260  -23.6350   11.4840 C.2     8  ASP8        0.3668
      7  OD1       48.8610  -23.9110   12.6940 O.co2   8  ASP8       -0.2456
      8  OD2       48.4780  -24.0290   10.4760 O.co2   8  ASP8       -0.2456
      9  N         49.8150  -27.7910   11.4430 N.3    10  ASP10      -0.1239
     10  CA        48.9110  -28.5920   10.5980 C.3    10  ASP10       0.1674
     11  C         48.5630  -27.8400    9.2960 C.2    10  ASP10       0.2266
     12  O         48.1120  -26.6750    9.3270 O.2    10  ASP10      -0.2867
     13  CB        47.6760  -29.0110   11.4100 C.3    10  ASP10       0.1410
     14  CG        48.0700  -29.7470   12.6960 C.2    10  ASP10       0.3668
     15  OD1       48.7360  -30.8070   12.5530 O.co2  10  ASP10      -0.2456
     16  OD2       47.7500  -29.2540   13.8250 O.co2  10  ASP10      -0.2456
     17  N         48.2120  -32.9020    7.9110 N.3    16  PHE16      -0.1227
     18  CA        47.0390  -33.3550    8.6920 C.3    16  PHE16       0.1736
     19  C         45.9370  -33.9660    7.8070 C.2    16  PHE16       0.2595
     20  O         45.4130  -35.0420    8.1510 O.2    16  PHE16      -0.2718
     21  CB        46.5150  -32.1520    9.5170 C.3    16  PHE16       0.0547
     22  CG        45.2890  -32.4390   10.3770 C.ar   16  PHE16      -0.0202
     23  CD1       44.0020  -32.4650    9.8330 C.ar   16  PHE16      -0.0042
     24  CD2       45.4160  -32.5970   11.7670 C.ar   16  PHE16      -0.0042
     25  CE1       42.8720  -32.7240   10.6600 C.ar   16  PHE16      -0.0003
     26  CE2       44.3020  -32.8530   12.5860 C.ar   16  PHE16      -0.0003
     27  CZ        43.0360  -32.9110   12.0350 C.ar   16  PHE16      -0.0000
     28  N         45.5760  -33.2780    6.7110 N.am   17  GLU17      -0.1979
     29  CA        44.4720  -33.7290    5.8670 C.3    17  GLU17       0.1602
     30  C         44.7620  -35.0860    5.2280 C.2    17  GLU17       0.2287
     31  O         43.8980  -35.9720    5.2280 O.2    17  GLU17      -0.2864
     32  CB        44.1040  -32.6750    4.8100 C.3    17  GLU17       0.0415
     33  CG        43.4730  -31.3780    5.3750 C.3    17  GLU17       0.1163
     34  CD        42.0050  -31.4920    5.7600 C.2    17  GLU17       0.3649
     35  OE1       41.2760  -32.4270    5.3140 O.co2  17  GLU17      -0.2457
     36  OE2       41.5650  -30.5830    6.4960 O.co2  17  GLU17      -0.2457
     37  N         37.2560  -25.2950    7.2940 N.3    42  PHE42      -0.1227
     38  CA        38.3870  -25.6620    8.1410 C.3    42  PHE42       0.1736
     39  C         38.2290  -27.0020    8.8750 C.2    42  PHE42       0.2595
     40  O         39.1410  -27.8390    8.8270 O.2    42  PHE42      -0.2718
     41  CB        38.6860  -24.5160    9.1230 C.3    42  PHE42       0.0547
     42  CG        39.9190  -24.7180    9.9480 C.ar   42  PHE42      -0.0202
     43  CD1       41.1910  -24.7050    9.3500 C.ar   42  PHE42      -0.0042
     44  CD2       39.8300  -24.8820   11.3250 C.ar   42  PHE42      -0.0042
     45  CE1       42.3470  -24.8660   10.1060 C.ar   42  PHE42      -0.0003
     46  CE2       40.9890  -25.0490   12.0910 C.ar   42  PHE42      -0.0003
     47  CZ        42.2490  -25.0470   11.4680 C.ar   42  PHE42      -0.0000
     48  N         37.0850  -27.2060    9.5250 N.am   43  LEU43      -0.1966
     49  CA        36.8740  -28.3990   10.3630 C.3    43  LEU43       0.1728
     50  C         36.3540  -29.6020    9.5690 C.2    43  LEU43       0.2616
     51  O         35.1760  -29.6460    9.1550 O.2    43  LEU43      -0.2715
     52  CB        35.9880  -28.0910   11.5820 C.3    43  LEU43       0.0311
     53  CG        36.5260  -27.0510   12.5880 C.3    43  LEU43       0.0022
     54  CD1       35.5090  -26.7420   13.6610 C.3    43  LEU43       0.0001
     55  CD2       37.8180  -27.5270   13.2250 C.3    43  LEU43       0.0001
     56  N         37.2370  -30.5820    9.3770 N.am   44  ALA44      -0.1963
     57  CA        36.8710  -31.8090    8.6620 C.3    44  ALA44       0.1728
     58  C         35.6660  -32.5500    9.2960 C.2    44  ALA44       0.2616
     59  O         34.8070  -33.1040    8.5560 O.2    44  ALA44      -0.2715
     60  CB        38.0920  -32.7180    8.5320 C.3    44  ALA44       0.0334
     61  N         35.5870  -32.5700   10.6350 N.am   45  ARG45      -0.1977
     62  CA        34.4920  -33.2890   11.3280 C.3    45  ARG45       0.1597
     63  C         33.0930  -32.8430   10.8800 C.2    45  ARG45       0.2287
     64  O         32.1620  -33.6770   10.7760 O.2    45  ARG45      -0.2864
     65  CB        34.6160  -33.1480   12.8560 C.3    45  ARG45       0.0334
     66  CG        33.6330  -34.0010   13.6880 C.3    45  ARG45       0.0492
     67  CD        33.9150  -33.8830   15.1680 C.3    45  ARG45       0.2205
     68  NE        33.2460  -34.9190   15.9520 N.pl3  45  ARG45      -0.0865
     69  CZ        33.3610  -35.0670   17.2700 C.cat  45  ARG45       0.5346
     70  NH1       32.7170  -36.0560   17.8820 N.pl3  45  ARG45       0.1354
     71  NH2       34.1190  -34.2390   17.9810 N.pl3  45  ARG45       0.1354
     72  N         41.6980  -38.6770   14.5750 N.3    63  TYR63      -0.1241
     73  CA        42.6670  -37.6450   15.0200 C.3    63  TYR63       0.1605
     74  C         42.8570  -37.5250   16.5470 C.2    63  TYR63       0.2264
     75  O         43.8050  -36.8550   16.9900 O.2    63  TYR63      -0.2867
     76  CB        42.4610  -36.2750   14.3320 C.3    63  TYR63       0.0534
     77  CG        41.1450  -35.5450   14.5390 C.ar   63  TYR63      -0.0201
     78  CD1       40.2770  -35.3610   13.4570 C.ar   63  TYR63      -0.0009
     79  CD2       40.7880  -35.0020   15.7750 C.ar   63  TYR63      -0.0009
     80  CE1       39.0930  -34.6810   13.5870 C.ar   63  TYR63       0.0417
     81  CE2       39.5780  -34.2980   15.9180 C.ar   63  TYR63       0.0417
     82  CZ        38.7370  -34.1550   14.8070 C.ar   63  TYR63       0.1957
     83  OH        37.5410  -33.4710   14.8870 O.3    63  TYR63      -0.2866
     84  N         49.2190  -37.5890   15.6270 N.3    69  PHE69      -0.1241
     85  CA        50.0750  -36.4120   15.3660 C.3    69  PHE69       0.1605
     86  C         51.5500  -36.7980   15.1690 C.2    69  PHE69       0.2264
     87  O         52.2480  -36.2400   14.2800 O.2    69  PHE69      -0.2867
     88  CB        49.9140  -35.3640   16.4810 C.3    69  PHE69       0.0534
     89  CG        48.6450  -34.5420   16.3550 C.ar   69  PHE69      -0.0203
     90  CD1       48.5860  -33.4420   15.4850 C.ar   69  PHE69      -0.0042
     91  CD2       47.4930  -34.8930   17.0700 C.ar   69  PHE69      -0.0042
     92  CE1       47.4280  -32.6920   15.3460 C.ar   69  PHE69      -0.0003
     93  CE2       46.3260  -34.1480   16.9370 C.ar   69  PHE69      -0.0003
     94  CZ        46.2920  -33.0530   16.0600 C.ar   69  PHE69      -0.0000
     95  N         51.3930  -22.9270   17.2970 N.3    97  THR97      -0.1203
     96  CA        50.4440  -24.0200   17.0010 C.3    97  THR97       0.1994
     97  C         49.4330  -24.2250   18.1710 C.2    97  THR97       0.2619
     98  O         49.7230  -23.9090   19.3460 O.2    97  THR97      -0.2717
     99  CB        51.2180  -25.3420   16.6780 C.3    97  THR97       0.1784
    100  OG1       50.3150  -26.3710   16.2590 O.3    97  THR97      -0.2211
    101  CG2       52.0360  -25.8370   17.8770 C.3    97  THR97       0.0376
    102  N         48.2390  -24.7200   17.8440 N.am   98  SER98      -0.1938
    103  CA        47.1630  -24.9350   18.8280 C.3    98  SER98       0.2040
    104  C         46.9180  -26.4240   19.1360 C.2    98  SER98       0.2485
    105  O         46.9210  -27.2460   18.2140 O.2    98  SER98      -0.2729
    106  CB        45.8520  -24.3360   18.3270 C.3    98  SER98       0.2129
    107  OG        45.9440  -22.9410   18.0580 O.3    98  SER98      -0.2179
    108  N         46.6900  -26.7790   20.4230 N.am   99  PRO99      -0.2715
    109  CA        46.2520  -28.1540   20.7180 C.3    99  PRO99       0.1536
    110  C         44.7480  -28.3320   20.4660 C.2    99  PRO99       0.2598
    111  O         43.9900  -27.3580   20.5280 O.2    99  PRO99      -0.2715
    112  CB        46.5460  -28.3150   22.2180 C.3    99  PRO99       0.0310
    113  CG        46.4320  -26.9390   22.7590 C.3    99  PRO99       0.0237
    114  CD        46.8320  -25.9770   21.6540 C.3    99  PRO99       0.0939
    115  N         44.3320  -29.5620   20.1540 N.am  100  LEU100     -0.1978
    116  CA        42.9070  -29.9740   20.2470 C.3   100  LEU100      0.1596
    117  C         42.3130  -29.6950   21.6430 C.2   100  LEU100      0.2287
    118  O         43.0420  -29.6730   22.6420 O.2   100  LEU100     -0.2864
    119  CB        42.7550  -31.4870   19.9620 C.3   100  LEU100      0.0297
    120  CG        43.1810  -32.0750   18.6060 C.3   100  LEU100      0.0022
    121  CD1       43.0490  -33.6080   18.6500 C.3   100  LEU100      0.0001
    122  CD2       42.3690  -31.4900   17.4440 C.3   100  LEU100      0.0001
    123  N         53.1210  -33.3630   19.3850 N.3   110  LYS110     -0.1245
    124  CA        53.6080  -32.2080   18.5910 C.3   110  LYS110      0.1561
    125  C         55.0690  -31.8440   18.9220 C.2   110  LYS110      0.2260
    126  O         55.8780  -31.6110   18.0100 O.2   110  LYS110     -0.2867
    127  CB        52.6680  -31.0070   18.7600 C.3   110  LYS110      0.0271
    128  CG        51.3800  -31.0870   17.9300 C.3   110  LYS110      0.0035
    129  CD        50.4460  -29.8960   18.2220 C.3   110  LYS110      0.0206
    130  CE        49.3110  -29.7500   17.2090 C.3   110  LYS110      0.1093
    131  NZ        49.7630  -29.2840   15.8590 N.3   110  LYS110     -0.1314
    132  N         45.8200  -21.5410   22.2470 N.3   130  ARG130     -0.1245
    133  CA        44.5260  -21.5540   21.5350 C.3   130  ARG130      0.1563
    134  C         44.2080  -20.1160   20.9960 C.2   130  ARG130      0.2260
    135  O         43.2130  -19.9350   20.2990 O.2   130  ARG130     -0.2867
    136  CB        43.3440  -21.9860   22.4530 C.3   130  ARG130      0.0307
    137  CG        43.3500  -23.4370   23.0030 C.3   130  ARG130      0.0489
    138  CD        42.8320  -24.5390   22.0650 C.3   130  ARG130      0.2205
    139  NE        41.4500  -24.3100   21.6150 N.pl3 130  ARG130     -0.0865
    140  CZ        40.8380  -24.9680   20.6360 C.cat 130  ARG130      0.5346
    141  NH1       39.5950  -24.6500   20.2720 N.pl3 130  ARG130      0.1354
    142  NH2       41.4690  -25.9260   19.9990 N.pl3 130  ARG130      0.1354
    143  N         46.2530  -17.1400   19.0020 N.3   132  LYS132     -0.1245
    144  CA        47.4920  -16.6280   18.3510 C.3   132  LYS132      0.1561
    145  C         47.5590  -15.0810   18.2680 C.2   132  LYS132      0.2260
    146  O         48.6460  -14.5090   17.9910 O.2   132  LYS132     -0.2867
    147  CB        47.6820  -17.2550   16.9460 C.3   132  LYS132      0.0271
    148  CG        47.7130  -18.7910   16.9790 C.3   132  LYS132      0.0035
    149  CD        48.0220  -19.4250   15.6120 C.3   132  LYS132      0.0206
    150  CE        47.9600  -20.9600   15.7290 C.3   132  LYS132      0.1093
    151  NZ        48.4290  -21.6910   14.5170 N.3   132  LYS132     -0.1314
    152  N         47.1220  -21.9400    7.3230 N.3   143  ASP143     -0.1239
    153  CA        46.0570  -22.3580    6.3970 C.3   143  ASP143      0.1674
    154  C         44.6080  -22.0380    6.8420 C.2   143  ASP143      0.2266
    155  O         43.6830  -22.1550    6.0190 O.2   143  ASP143     -0.2867
    156  CB        46.1710  -23.8610    6.0590 C.3   143  ASP143      0.1410
    157  CG        45.9630  -24.7600    7.2690 C.2   143  ASP143      0.3668
    158  OD1       46.5330  -24.4380    8.3210 O.co2 143  ASP143     -0.2456
    159  OD2       45.2220  -25.7800    7.1640 O.co2 143  ASP143     -0.2456
@<TRIPOS>BOND
     1    32    33    1
     2    32    29    1
     3    31    30    2
     4    30    29    1
     5    35    34   ar
     6    33    34    1
     7    34    36   ar
     8    29    28    1
     9   155   154    2
    10   156   153    1
    11   156   157    1
    12   153   154    1
    13   153   152    1
    14    28    19   am
    15   159   157   ar
    16   157   158   ar
    17    37    38    1
    18    19    20    2
    19    19    18    1
    20    17    18    1
    21    38    39    1
    22    38    41    1
    23    60    57    1
    24    59    58    2
    25    57    58    1
    26    57    56    1
    27    18    21    1
    28    40    39    2
    29    39    48   am
    30    41    42    1
    31    51    50    2
    32    11    12    2
    33    11    10    1
    34    58    61   am
    35    43    42   ar
    36    43    45   ar
    37    56    50   am
    38    21    22    1
    39    48    49    1
    40    50    49    1
    41    23    22   ar
    42    23    25   ar
    43    42    44   ar
    44    45    47   ar
    45    49    52    1
    46    22    24   ar
    47     8     6   ar
    48    10    13    1
    49    10     9    1
    50    61    62    1
    51    25    27   ar
    52     4     3    2
    53    64    63    2
    54    63    62    1
    55     5     6    1
    56     5     2    1
    57    44    46   ar
    58    62    65    1
    59    13    14    1
    60    47    46   ar
    61     1     2    1
    62     6     7   ar
    63    52    53    1
    64     3     2    1
    65    24    26   ar
    66    27    26   ar
    67    15    14   ar
    68    53    55    1
    69    53    54    1
    70    14    16   ar
    71    65    66    1
    72    78    80   ar
    73    78    77   ar
    74    80    82   ar
    75    66    67    1
    76    87    86    2
    77    76    77    1
    78    76    73    1
    79   151   150    1
    80    77    79   ar
    81    72    73    1
    82    82    83    1
    83    82    81   ar
    84    73    74    1
    85    67    68    1
    86    86    85    1
    87    92    90   ar
    88    92    94   ar
    89    85    84    1
    90    85    88    1
    91    90    89   ar
    92   149   150    1
    93   149   148    1
    94    79    81   ar
    95   131   130    1
    96    68    69    2
    97    94    93   ar
    98   100    99    1
    99    89    88    1
   100    89    91   ar
   101    74    75    2
   102    99    96    1
   103    99   101    1
   104    93    91   ar
   105   147   148    1
   106   147   144    1
   107    96    95    1
   108    96    97    1
   109   130   129    1
   110    69    70    1
   111    69    71    1
   112   122   120    1
   113   102    97   am
   114   102   103    1
   115   128   129    1
   116   128   127    1
   117   146   145    2
   118   126   125    2
   119   107   106    1
   120    97    98    2
   121   105   104    2
   122   145   144    1
   123   106   103    1
   124   144   143    1
   125   124   127    1
   126   124   125    1
   127   124   123    1
   128   120   121    1
   129   120   119    1
   130   103   104    1
   131   104   108   am
   132   119   116    1
   133   142   140    1
   134   115   116    1
   135   115   110   am
   136   116   117    1
   137   141   140    1
   138   135   134    2
   139   108   109    1
   140   108   114    1
   141   110   111    2
   142   110   109    1
   143   140   139    2
   144   109   112    1
   145   134   133    1
   146   133   132    1
   147   133   136    1
   148   139   138    1
   149   117   118    2
   150   114   113    1
   151   138   137    1
   152   112   113    1
   153   136   137    1
