@<TRIPOS>MOLECULE
tmp/2i7gA00.pdb
 104 103 0 0 0
SMALL
GASTEIGER

@<TRIPOS>ATOM
      1  N         74.2370   22.1190   40.7810 N.3    49  GLU49      -0.1231
      2  CA        73.5050   22.9420   39.8100 C.3    49  GLU49       0.1699
      3  C         74.4870   23.5410   38.7770 C.2    49  GLU49       0.2592
      4  O         75.5080   24.1660   39.1580 O.2    49  GLU49      -0.2718
      5  CB        72.8520   24.1240   40.5770 C.3    49  GLU49       0.0402
      6  CG        72.2110   25.1900   39.6380 C.3    49  GLU49       0.1161
      7  CD        71.7180   26.4640   40.3930 C.2    49  GLU49       0.3649
      8  OE1       71.8190   26.5060   41.6640 O.co2  49  GLU49      -0.2457
      9  OE2       71.2540   27.4100   39.6940 O.co2  49  GLU49      -0.2457
     10  N         74.2150   23.3220   37.4800 N.am   50  HIS50      -0.1962
     11  CA        74.9770   23.9290   36.3640 C.3    50  HIS50       0.1787
     12  C         74.0700   24.4030   35.2480 C.2    50  HIS50       0.2620
     13  O         72.8990   24.0080   35.1820 O.2    50  HIS50      -0.2715
     14  CB        75.9940   22.9410   35.8070 C.3    50  HIS50       0.0785
     15  CG        77.0720   22.6430   36.7900 C.ar   50  HIS50       0.0821
     16  ND1       76.9500   21.6550   37.7360 N.ar   50  HIS50      -0.2267
     17  CD2       78.2290   23.2940   37.0590 C.ar   50  HIS50       0.1154
     18  CE1       78.0000   21.6910   38.5380 C.ar   50  HIS50       0.1986
     19  NE2       78.7720   22.6970   38.1700 N.ar   50  HIS50      -0.2212
     20  N         74.6280   25.2340   34.3720 N.am   51  HIS51      -0.1973
     21  CA        73.8490   25.9720   33.3670 C.3    51  HIS51       0.1656
     22  C         74.6270   25.9140   32.0590 C.2    51  HIS51       0.2291
     23  O         75.0110   26.9390   31.4920 O.2    51  HIS51      -0.2864
     24  CB        73.5790   27.4060   33.8360 C.3    51  HIS51       0.0771
     25  CG        72.5510   27.4420   34.9160 C.ar   51  HIS51       0.0820
     26  ND1       72.8640   27.4660   36.2620 N.ar   51  HIS51      -0.2267
     27  CD2       71.2090   27.2890   34.8420 C.ar   51  HIS51       0.1154
     28  CE1       71.7440   27.3920   36.9730 C.ar   51  HIS51       0.1986
     29  NE2       70.7220   27.3250   36.1330 N.ar   51  HIS51      -0.2212
     30  N         76.4810   21.9850   44.4230 N.3    80  VAL80      -0.1245
     31  CA        75.8740   22.9590   45.3110 C.3    80  VAL80       0.1561
     32  C         74.6580   23.6170   44.6960 C.2    80  VAL80       0.2260
     33  O         74.4390   23.5480   43.4900 O.2    80  VAL80      -0.2867
     34  CB        76.8870   24.1350   45.6560 C.3    80  VAL80       0.0252
     35  CG1       78.1780   23.5830   46.2450 C.3    80  VAL80       0.0019
     36  CG2       77.1840   25.0110   44.4250 C.3    80  VAL80       0.0019
     37  N         73.6390   27.2220   43.7360 N.3    82  VAL82      -0.1245
     38  CA        74.2880   28.5320   43.5310 C.3    82  VAL82       0.1561
     39  C         73.2760   29.5760   44.0510 C.2    82  VAL82       0.2260
     40  O         72.4940   30.2080   43.2990 O.2    82  VAL82      -0.2867
     41  CB        74.6690   28.7900   42.0180 C.3    82  VAL82       0.0252
     42  CG1       75.4610   30.0880   41.8980 C.3    82  VAL82       0.0019
     43  CG2       75.4970   27.6640   41.4960 C.3    82  VAL82       0.0019
     44  N         79.4630   29.0350   45.9910 N.3   111  ARG111     -0.1231
     45  CA        79.8310   29.6950   44.7590 C.3   111  ARG111      0.1694
     46  C         79.7180   28.7300   43.5990 C.2   111  ARG111      0.2592
     47  O         79.1850   29.0900   42.5370 O.2   111  ARG111     -0.2718
     48  CB        81.2650   30.2320   44.8810 C.3   111  ARG111      0.0321
     49  CG        81.5940   31.3360   43.9160 C.3   111  ARG111      0.0489
     50  CD        83.0850   31.6460   43.9670 C.3   111  ARG111      0.2205
     51  NE        83.4500   32.2180   45.2540 N.pl3 111  ARG111     -0.0865
     52  CZ        83.5940   33.5180   45.4880 C.cat 111  ARG111      0.5346
     53  NH1       83.4180   34.4180   44.5270 N.pl3 111  ARG111      0.1354
     54  NH2       83.9260   33.9200   46.7040 N.pl3 111  ARG111      0.1354
     55  N         80.1850   27.5070   43.8340 N.am  112  GLY112     -0.1957
     56  CA        80.5480   26.5980   42.7690 C.3   112  GLY112      0.1869
     57  C         81.8320   27.0790   42.0990 C.2   112  GLY112      0.2309
     58  O         82.4520   28.0500   42.5390 O.2   112  GLY112     -0.2863
     59  N         81.7240   27.6760   38.6370 N.3   114  PHE114     -0.1227
     60  CA        81.2840   28.0850   37.3030 C.3   114  PHE114      0.1736
     61  C         80.5430   29.3980   37.4110 C.2   114  PHE114      0.2595
     62  O         80.0070   29.7420   38.4940 O.2   114  PHE114     -0.2718
     63  CB        80.3520   27.0310   36.6800 C.3   114  PHE114      0.0547
     64  CG        81.0000   25.6870   36.4390 C.ar  114  PHE114     -0.0202
     65  CD1       81.4070   25.3160   35.1590 C.ar  114  PHE114     -0.0042
     66  CD2       81.1770   24.7870   37.4780 C.ar  114  PHE114     -0.0042
     67  CE1       82.0120   24.0520   34.9050 C.ar  114  PHE114     -0.0003
     68  CE2       81.7800   23.5140   37.2340 C.ar  114  PHE114     -0.0003
     69  CZ        82.1890   23.1500   35.9470 C.ar  114  PHE114     -0.0000
     70  N         80.4510   30.1020   36.2860 N.am  115  ILE115     -0.1966
     71  CA        79.9250   31.4770   36.2920 C.3   115  ILE115      0.1727
     72  C         78.7460   31.7440   35.3400 C.2   115  ILE115      0.2616
     73  O         78.3240   32.8840   35.1960 O.2   115  ILE115     -0.2715
     74  CB        81.0590   32.4790   36.0520 C.3   115  ILE115      0.0290
     75  CG1       81.7210   32.2580   34.6750 C.3   115  ILE115      0.0022
     76  CG2       82.0630   32.4170   37.2380 C.3   115  ILE115      0.0023
     77  CD1       82.7970   33.2900   34.3120 C.3   115  ILE115      0.0001
     78  N         78.2020   30.6890   34.7350 N.am  116  GLU116     -0.1963
     79  CA        77.1300   30.8120   33.7510 C.3   116  GLU116      0.1733
     80  C         75.8280   31.3170   34.3840 C.2   116  GLU116      0.2617
     81  O         75.0030   31.8760   33.6720 O.2   116  GLU116     -0.2715
     82  CB        76.8170   29.4510   33.1020 C.3   116  GLU116      0.0429
     83  CG        77.8400   29.0150   32.0570 C.3   116  GLU116      0.1163
     84  CD        79.0410   28.3500   32.6760 C.2   116  GLU116      0.3649
     85  OE1       80.0540   28.1400   31.9240 O.co2 116  GLU116     -0.2457
     86  OE2       78.9910   28.0100   33.9000 O.co2 116  GLU116     -0.2457
     87  N         75.6300   31.1300   35.6870 N.am  117  SER117     -0.1936
     88  CA        74.3140   31.5400   36.2630 C.3   117  SER117      0.2055
     89  C         74.1500   33.0500   36.2840 C.2   117  SER117      0.2643
     90  O         73.0380   33.5450   36.1540 O.2   117  SER117     -0.2714
     91  CB        74.0710   30.9440   37.6470 C.3   117  SER117      0.2130
     92  OG        74.9140   31.5450   38.6020 O.3   117  SER117     -0.2179
     93  N         75.2460   33.7840   36.4430 N.am  118  TYR118     -0.1973
     94  CA        75.1370   35.2380   36.5360 C.3   118  TYR118      0.1639
     95  C         74.5830   35.9460   35.2730 C.2   118  TYR118      0.2290
     96  O         73.6420   36.7340   35.3930 O.2   118  TYR118     -0.2864
     97  CB        76.4150   35.8660   37.1360 C.3   118  TYR118      0.0560
     98  CG        76.3880   35.8690   38.6680 C.ar  118  TYR118     -0.0198
     99  CD1       75.8970   34.7680   39.4010 C.ar  118  TYR118     -0.0009
    100  CD2       76.8330   36.9730   39.3810 C.ar  118  TYR118     -0.0009
    101  CE1       75.8630   34.7850   40.7940 C.ar  118  TYR118      0.0417
    102  CE2       76.8050   37.0010   40.7690 C.ar  118  TYR118      0.0417
    103  CZ        76.3230   35.9180   41.4680 C.ar  118  TYR118      0.1957
    104  OH        76.3060   35.9960   42.8340 O.3   118  TYR118     -0.2866
@<TRIPOS>BOND
     1    23    22    2
     2    85    84   ar
     3    83    84    1
     4    83    82    1
     5    22    21    1
     6    84    86   ar
     7    82    79    1
     8    21    24    1
     9    21    20    1
    10    81    80    2
    11    79    80    1
    12    79    78    1
    13    24    25    1
    14    77    75    1
    15    20    12   am
    16    80    87   am
    17    75    74    1
    18    78    72   am
    19    27    25   ar
    20    27    29   ar
    21    67    65   ar
    22    67    69   ar
    23    25    26   ar
    24    65    64   ar
    25    13    12    2
    26    73    72    2
    27    12    11    1
    28    95    96    2
    29    95    94    1
    30    72    71    1
    31    87    88    1
    32    14    11    1
    33    14    15    1
    34    69    68   ar
    35    74    71    1
    36    74    76    1
    37    29    28   ar
    38    90    89    2
    39    26    28   ar
    40    88    89    1
    41    88    91    1
    42    89    93   am
    43    70    71    1
    44    70    61   am
    45    11    10    1
    46    64    63    1
    47    64    66   ar
    48    93    94    1
    49    94    97    1
    50    63    60    1
    51    15    17   ar
    52    15    16   ar
    53    17    19   ar
    54    97    98    1
    55    68    66   ar
    56    60    61    1
    57    60    59    1
    58    61    62    2
    59    10     3   am
    60    91    92    1
    61    16    18   ar
    62    19    18   ar
    63    98   100   ar
    64    98    99   ar
    65     3     4    2
    66     3     2    1
    67   100   102   ar
    68    99   101   ar
    69     6     7    1
    70     6     5    1
    71     9     7   ar
    72     2     5    1
    73     2     1    1
    74     7     8   ar
    75   102   103   ar
    76   101   103   ar
    77   103   104    1
    78    43    41    1
    79    42    41    1
    80    41    38    1
    81    57    58    2
    82    57    56    1
    83    47    46    2
    84    56    55    1
    85    40    39    2
    86    33    32    2
    87    38    37    1
    88    38    39    1
    89    46    55   am
    90    46    45    1
    91    49    50    1
    92    49    48    1
    93    50    51    1
    94    30    31    1
    95    36    34    1
    96    53    52    1
    97    32    31    1
    98    45    48    1
    99    45    44    1
   100    51    52    2
   101    31    34    1
   102    52    54    1
   103    34    35    1
