@<TRIPOS>MOLECULE
tmp/2i7hC01.pdb
 87 88 0 0 0
SMALL
GASTEIGER

@<TRIPOS>ATOM
      1  N         67.5130   76.6630    4.1030 N.3    39  TRP39      -0.1227
      2  CA        68.4030   77.7870    4.3830 C.3    39  TRP39       0.1737
      3  C         69.8840   77.5820    4.0280 C.2    39  TRP39       0.2595
      4  O         70.7280   78.4370    4.3600 O.2    39  TRP39      -0.2718
      5  CB        68.1940   78.3160    5.8150 C.3    39  TRP39       0.0564
      6  CG        66.8710   78.9990    5.8710 C.ar   39  TRP39       0.0003
      7  CD1       65.6460   78.4170    6.1450 C.ar   39  TRP39       0.0946
      8  CD2       66.6080   80.3520    5.5530 C.ar   39  TRP39       0.0152
      9  NE1       64.6510   79.3420    6.0360 N.ar   39  TRP39      -0.2442
     10  CE2       65.2050   80.5430    5.6800 C.ar   39  TRP39       0.0810
     11  CE3       67.4140   81.4380    5.1770 C.ar   39  TRP39       0.0012
     12  CZ2       64.6000   81.7730    5.4400 C.ar   39  TRP39       0.0191
     13  CZ3       66.8300   82.6220    4.9630 C.ar   39  TRP39       0.0001
     14  CH2       65.4280   82.8030    5.0840 C.ar   39  TRP39       0.0015
     15  N         70.1710   76.5090    3.3030 N.am   40  ALA40      -0.1966
     16  CA        71.4790   76.2400    2.6820 C.3    40  ALA40       0.1713
     17  C         71.9440   77.3750    1.7680 C.2    40  ALA40       0.2458
     18  O         71.1270   78.0320    1.1320 O.2    40  ALA40      -0.2730
     19  CB        71.4330   74.8950    1.8530 C.3    40  ALA40       0.0333
     20  N         73.2680   77.5870    1.6900 N.am   41  PRO41      -0.2716
     21  CA        73.8120   78.5230    0.6860 C.3    41  PRO41       0.1536
     22  C         73.3830   78.0000   -0.7090 C.2    41  PRO41       0.2599
     23  O         73.3580   76.7770   -0.9360 O.2    41  PRO41      -0.2715
     24  CB        75.3420   78.4130    0.8760 C.3    41  PRO41       0.0310
     25  CG        75.5260   76.9850    1.5270 C.3    41  PRO41       0.0237
     26  CD        74.3260   76.9050    2.4680 C.3    41  PRO41       0.0939
     27  N         72.9410   78.8940   -1.5910 N.am   42  ASN42      -0.1959
     28  CA        72.6300   78.4940   -2.9660 C.3    42  ASN42       0.1819
     29  C         72.8010   79.6250   -3.9360 C.2    42  ASN42       0.2621
     30  O         72.0640   80.6120   -3.9030 O.2    42  ASN42      -0.2715
     31  CB        71.2420   77.8230   -3.1030 C.3    42  ASN42       0.1195
     32  CG        70.1150   78.7290   -2.7320 C.2    42  ASN42       0.2630
     33  OD1       69.3130   79.0680   -3.5760 O.2    42  ASN42      -0.2716
     34  ND2       70.0360   79.1160   -1.4650 N.am   42  ASN42      -0.0877
     35  N         73.8050   79.4780   -4.7860 N.am   43  HIS43      -0.1959
     36  CA        74.2120   80.5440   -5.6580 C.3    43  HIS43       0.1787
     37  C         73.0400   81.0250   -6.5080 C.2    43  HIS43       0.2620
     38  O         72.3080   80.2010   -7.0970 O.2    43  HIS43      -0.2715
     39  CB        75.4020   80.1270   -6.5120 C.3    43  HIS43       0.0785
     40  CG        76.1330   81.2890   -7.0980 C.ar   43  HIS43       0.0821
     41  ND1       76.3890   82.4440   -6.3840 N.ar   43  HIS43      -0.2267
     42  CD2       76.6360   81.4980   -8.3380 C.ar   43  HIS43       0.1154
     43  CE1       77.0110   83.3150   -7.1610 C.ar   43  HIS43       0.1986
     44  NE2       77.1860   82.7600   -8.3480 N.ar   43  HIS43      -0.2212
     45  N         72.8380   82.3460   -6.5220 N.am   44  LYS44      -0.1963
     46  CA        71.7880   82.9920   -7.3060 C.3    44  LYS44       0.1728
     47  C         70.3930   82.6420   -6.8240 C.2    44  LYS44       0.2616
     48  O         69.4290   82.8810   -7.5420 O.2    44  LYS44      -0.2715
     49  CB        71.8880   82.6790   -8.8140 C.3    44  LYS44       0.0311
     50  CG        73.1750   83.0520   -9.5000 C.3    44  LYS44       0.0038
     51  CD        73.3260   84.5380   -9.5740 C.3    44  LYS44       0.0206
     52  CE        74.6970   84.9470  -10.0860 C.3    44  LYS44       0.1093
     53  NZ        74.7880   86.4250   -9.9400 N.3    44  LYS44      -0.1314
     54  N         70.2690   82.0710   -5.6250 N.am   45  HIS45      -0.1973
     55  CA        68.9500   81.7230   -5.0710 C.3    45  HIS45       0.1656
     56  C         68.1520   80.7940   -6.0180 C.2    45  HIS45       0.2291
     57  O         66.9170   80.9080   -6.1670 O.2    45  HIS45      -0.2864
     58  CB        68.1510   83.0010   -4.6680 C.3    45  HIS45       0.0771
     59  CG        68.9030   83.9310   -3.7650 C.ar   45  HIS45       0.0820
     60  ND1       69.3990   85.1550   -4.1890 N.ar   45  HIS45      -0.2267
     61  CD2       69.2620   83.8230   -2.4580 C.ar   45  HIS45       0.1154
     62  CE1       70.0170   85.7600   -3.1850 C.ar   45  HIS45       0.1986
     63  NE2       69.9500   84.9740   -2.1230 N.ar   45  HIS45      -0.2212
     64  N         77.5120   74.1410   -8.9950 N.3   107  GLU107     -0.1245
     65  CA        77.0410   74.9990   -7.9120 C.3   107  GLU107      0.1567
     66  C         75.7530   74.4960   -7.3170 C.2   107  GLU107      0.2260
     67  O         75.5680   74.5310   -6.0760 O.2   107  GLU107     -0.2867
     68  CB        76.8100   76.4430   -8.4020 C.3   107  GLU107      0.0388
     69  CG        78.0600   77.2520   -8.4640 C.3   107  GLU107      0.1160
     70  CD        77.9000   78.4950   -9.3120 C.2   107  GLU107      0.3649
     71  OE1       76.7940   78.7590   -9.8750 O.co2 107  GLU107     -0.2457
     72  OE2       78.8950   79.2290   -9.3990 O.co2 107  GLU107     -0.2457
     73  N         76.3650   71.4280   -5.2870 N.3   110  ALA110     -0.1231
     74  CA        76.9990   71.7990   -4.0320 C.3   110  ALA110      0.1694
     75  C         75.9110   72.3130   -3.0690 C.2   110  ALA110      0.2591
     76  O         75.8740   71.9350   -1.9210 O.2   110  ALA110     -0.2718
     77  CB        78.0960   72.8720   -4.2600 C.3   110  ALA110      0.0304
     78  N         75.0110   73.1460   -3.5710 N.am  111  ALA111     -0.1980
     79  CA        73.8690   73.6510   -2.8040 C.3   111  ALA111      0.1597
     80  C         72.9840   72.5110   -2.2630 C.2   111  ALA111      0.2287
     81  O         72.6050   72.5060   -1.0690 O.2   111  ALA111     -0.2864
     82  CB        73.0390   74.6700   -3.6700 C.3   111  ALA111      0.0319
     83  N         74.7000   70.7360    0.6010 N.3   114  ALA114     -0.1245
     84  CA        74.6110   71.5830    1.7830 C.3   114  ALA114      0.1562
     85  C         73.2210   71.4630    2.4510 C.2   114  ALA114      0.2260
     86  O         73.1300   71.3310    3.6570 O.2   114  ALA114     -0.2867
     87  CB        74.9520   73.0450    1.4060 C.3   114  ALA114      0.0290
@<TRIPOS>BOND
     1    52    53    1
     2    52    51    1
     3    71    70   ar
     4    51    50    1
     5    50    49    1
     6    72    70   ar
     7    70    69    1
     8    64    65    1
     9    49    46    1
    10    69    68    1
    11    68    65    1
    12    44    42   ar
    13    44    43   ar
    14    42    40   ar
    15    65    66    1
    16    48    47    2
    17    66    67    2
    18    46    47    1
    19    46    45    1
    20    43    41   ar
    21    40    39    1
    22    40    41   ar
    23    38    37    2
    24    47    54   am
    25    45    37   am
    26    39    36    1
    27    37    36    1
    28    57    56    2
    29    56    55    1
    30    36    35    1
    31    54    55    1
    32    73    74    1
    33    55    58    1
    34    35    29   am
    35    58    59    1
    36    77    74    1
    37    60    59   ar
    38    60    62   ar
    39    74    75    1
    40    29    30    2
    41    29    28    1
    42    59    61   ar
    43    82    79    1
    44    33    32    2
    45    78    75   am
    46    78    79    1
    47    62    63   ar
    48    31    28    1
    49    31    32    1
    50    75    76    2
    51    28    27    1
    52    79    80    1
    53    32    34   am
    54    61    63   ar
    55    80    81    2
    56    27    22   am
    57    23    22    2
    58    22    21    1
    59    83    84    1
    60    21    24    1
    61    21    20    1
    62    24    25    1
    63    18    17    2
    64    87    84    1
    65    25    26    1
    66    20    17   am
    67    20    26    1
    68    17    16    1
    69    84    85    1
    70    19    16    1
    71    85    86    2
    72    16    15    1
    73    15     3   am
    74     3     4    2
    75     3     2    1
    76     1     2    1
    77     2     5    1
    78    13    14   ar
    79    13    11   ar
    80    14    12   ar
    81    11     8   ar
    82    12    10   ar
    83     8    10   ar
    84     8     6   ar
    85    10     9   ar
    86     5     6    1
    87     6     7   ar
    88     9     7   ar
