@<TRIPOS>MOLECULE
tmp/2i7hC00.pdb
 131 123 0 0 0
SMALL
GASTEIGER

@<TRIPOS>ATOM
      1  N         76.7070   63.5950   15.3250 N.3    14  ARG14      -0.1245
      2  CA        75.8800   62.9680   14.2920 C.3    14  ARG14       0.1563
      3  C         76.5610   61.7050   13.7470 C.2    14  ARG14       0.2260
      4  O         77.7280   61.7380   13.3480 O.2    14  ARG14      -0.2867
      5  CB        75.5920   63.9580   13.1440 C.3    14  ARG14       0.0307
      6  CG        74.7960   63.3920   11.9980 C.3    14  ARG14       0.0489
      7  CD        75.1800   64.0550   10.6370 C.3    14  ARG14       0.2205
      8  NE        76.5410   63.6660   10.2690 N.pl3  14  ARG14      -0.0865
      9  CZ        76.8900   62.4760    9.7810 C.cat  14  ARG14       0.5346
     10  NH1       75.9700   61.5580    9.5010 N.pl3  14  ARG14       0.1354
     11  NH2       78.1760   62.2100    9.5360 N.pl3  14  ARG14       0.1354
     12  N         75.8140   58.4480   10.9390 N.3    16  SER16      -0.1217
     13  CA        74.9940   57.7620    9.9490 C.3    16  SER16       0.1889
     14  C         74.3090   56.5510   10.5910 C.2    16  SER16       0.2288
     15  O         74.9510   55.7280   11.2370 O.2    16  SER16      -0.2866
     16  CB        75.8530   57.3050    8.8000 C.3    16  SER16       0.2089
     17  OG        76.1150   58.3920    7.9200 O.3    16  SER16      -0.2183
     18  N         71.7670   53.3140   10.0070 N.3    18  ARG18      -0.1245
     19  CA        71.3100   52.3770    8.9950 C.3    18  ARG18       0.1563
     20  C         70.1890   51.4580    9.4800 C.2    18  ARG18       0.2260
     21  O         69.4780   50.8800    8.6580 O.2    18  ARG18      -0.2867
     22  CB        72.4970   51.5650    8.4620 C.3    18  ARG18       0.0307
     23  CG        73.3790   52.4260    7.5990 C.3    18  ARG18       0.0489
     24  CD        74.5400   51.6730    6.9320 C.3    18  ARG18       0.2205
     25  NE        75.4360   52.6250    6.2560 N.pl3  18  ARG18      -0.0865
     26  CZ        76.3500   53.3820    6.8780 C.cat  18  ARG18       0.5346
     27  NH1       76.5310   53.2990    8.1940 N.pl3  18  ARG18       0.1354
     28  NH2       77.0890   54.2230    6.1750 N.pl3  18  ARG18       0.1354
     29  N         74.6150   71.3080   -7.4850 N.3   109  TYR109     -0.1241
     30  CA        74.9430   70.0710   -6.7580 C.3   109  TYR109      0.1605
     31  C         75.4950   70.4100   -5.3570 C.2   109  TYR109      0.2264
     32  O         75.1300   69.7620   -4.3750 O.2   109  TYR109     -0.2867
     33  CB        75.9630   69.2090   -7.5340 C.3   109  TYR109      0.0534
     34  CG        76.0750   67.7650   -7.0940 C.ar  109  TYR109     -0.0201
     35  CD1       75.3240   66.7810   -7.6870 C.ar  109  TYR109     -0.0009
     36  CD2       77.0020   67.3840   -6.1310 C.ar  109  TYR109     -0.0009
     37  CE1       75.4480   65.4190   -7.3020 C.ar  109  TYR109      0.0417
     38  CE2       77.1400   66.0310   -5.7240 C.ar  109  TYR109      0.0417
     39  CZ        76.3500   65.0760   -6.3080 C.ar  109  TYR109      0.1957
     40  OH        76.4990   63.7640   -5.9200 O.3   109  TYR109     -0.2866
     41  N         73.8340   69.3760   -1.7470 N.3   113  CYS113     -0.1235
     42  CA        74.6290   68.6850   -0.7160 C.3   113  CYS113      0.1677
     43  C         74.6090   69.4080    0.6460 C.2   113  CYS113      0.2270
     44  O         74.4980   68.7700    1.7030 O.2   113  CYS113     -0.2867
     45  CB        76.0770   68.4230   -1.2080 C.3   113  CYS113      0.0956
     46  SG        76.1090   67.2480   -2.6130 S.3   113  CYS113     -0.0801
     47  N         70.5420   66.4900    7.8760 N.3   119  GLN119     -0.1245
     48  CA        71.1580   65.4660    8.7490 C.3   119  GLN119      0.1566
     49  C         71.4110   66.0060   10.1540 C.2   119  GLN119      0.2260
     50  O         71.1190   65.3400   11.1320 O.2   119  GLN119     -0.2867
     51  CB        72.4540   64.9280    8.1350 C.3   119  GLN119      0.0367
     52  CG        72.2620   64.1000    6.8480 C.3   119  GLN119      0.0905
     53  CD        73.4300   63.1870    6.5640 C.2   119  GLN119      0.2608
     54  OE1       74.6330   63.6050    6.5490 O.2   119  GLN119     -0.2717
     55  NE2       73.1180   61.9250    6.3760 N.am  119  GLN119     -0.0878
     56  N         70.6450   58.0670    7.0990 N.3   130  VAL130     -0.1231
     57  CA        71.7710   57.7060    6.2320 C.3   130  VAL130      0.1692
     58  C         71.5410   58.2360    4.8140 C.2   130  VAL130      0.2592
     59  O         70.4590   58.1150    4.2620 O.2   130  VAL130     -0.2718
     60  CB        72.1620   56.1620    6.2680 C.3   130  VAL130      0.0266
     61  CG1       71.0200   55.2510    5.8470 C.3   130  VAL130      0.0020
     62  CG2       73.4530   55.8820    5.4420 C.3   130  VAL130      0.0020
     63  N         72.5840   58.8610    4.2690 N.am  131  TRP131     -0.1962
     64  CA        72.6090   59.4220    2.9130 C.3   131  TRP131      0.1771
     65  C         73.1010   58.3150    1.9860 C.2   131  TRP131      0.2619
     66  O         74.2910   58.0400    1.9730 O.2   131  TRP131     -0.2715
     67  CB        73.6350   60.5580    2.9170 C.3   131  TRP131      0.0590
     68  CG        73.8010   61.3640    1.6880 C.ar  131  TRP131      0.0006
     69  CD1       73.5990   60.9660    0.3770 C.ar  131  TRP131      0.0946
     70  CD2       74.2780   62.7110    1.6310 C.ar  131  TRP131      0.0152
     71  NE1       73.8920   61.9800   -0.4720 N.ar  131  TRP131     -0.2442
     72  CE2       74.3030   63.0780    0.2630 C.ar  131  TRP131      0.0810
     73  CE3       74.6800   63.6590    2.6150 C.ar  131  TRP131      0.0012
     74  CZ2       74.7080   64.3530   -0.1600 C.ar  131  TRP131      0.0191
     75  CZ3       75.0990   64.9190    2.2000 C.ar  131  TRP131      0.0001
     76  CH2       75.1060   65.2610    0.8120 C.ar  131  TRP131      0.0015
     77  N         72.2110   57.6590    1.2400 N.am  132  LYS132     -0.1963
     78  CA        72.6730   56.5940    0.2970 C.3   132  LYS132      0.1728
     79  C         73.0260   57.1830   -1.0590 C.2   132  LYS132      0.2617
     80  O         72.3320   58.0890   -1.5480 O.2   132  LYS132     -0.2715
     81  CB        71.6680   55.4390    0.2030 C.3   132  LYS132      0.0311
     82  CG        71.4100   54.8270    1.5470 C.3   132  LYS132      0.0038
     83  CD        71.4290   53.3370    1.4190 C.3   132  LYS132      0.0206
     84  CE        71.6690   52.6330    2.7290 C.3   132  LYS132      0.1093
     85  NZ        73.0600   52.1240    2.7040 N.3   132  LYS132     -0.1314
     86  N         74.1020   56.7020   -1.6800 N.am  133  SER133     -0.1936
     87  CA        74.6400   57.3520   -2.8950 C.3   133  SER133      0.2055
     88  C         75.0800   56.4220   -4.0160 C.2   133  SER133      0.2643
     89  O         75.6500   56.8850   -5.0170 O.2   133  SER133     -0.2714
     90  CB        75.8230   58.2710   -2.5500 C.3   133  SER133      0.2130
     91  OG        75.4130   59.6020   -2.2500 O.3   133  SER133     -0.2179
     92  N         74.8380   55.1240   -3.8770 N.am  134  GLY134     -0.1954
     93  CA        75.4070   54.1710   -4.8450 C.3   134  GLY134      0.1869
     94  C         74.9590   54.1580   -6.3170 C.2   134  GLY134      0.2309
     95  O         74.2880   55.0610   -6.7940 O.2   134  GLY134     -0.2863
     96  N         70.9110   63.1870   -6.1080 N.3   155  VAL155     -0.1245
     97  CA        72.0520   63.5890   -5.2910 C.3   155  VAL155      0.1561
     98  C         72.2050   62.6150   -4.1000 C.2   155  VAL155      0.2260
     99  O         73.2950   62.3780   -3.6010 O.2   155  VAL155     -0.2867
    100  CB        71.8990   65.0430   -4.8470 C.3   155  VAL155      0.0252
    101  CG1       73.0880   65.4580   -3.9480 C.3   155  VAL155      0.0019
    102  CG2       71.7760   65.9440   -6.1170 C.3   155  VAL155      0.0019
    103  N         79.8850   53.1930   15.6950 N.3   168  GLU168     -0.1245
    104  CA        80.7630   54.0630   16.4590 C.3   168  GLU168      0.1567
    105  C         81.4340   55.0890   15.5430 C.2   168  GLU168      0.2260
    106  O         81.5830   54.8600   14.3380 O.2   168  GLU168     -0.2867
    107  CB        81.7580   53.2140   17.2580 C.3   168  GLU168      0.0388
    108  CG        83.2280   53.5910   17.1330 C.3   168  GLU168      0.1160
    109  CD        84.0400   53.2690   18.3920 C.2   168  GLU168      0.3649
    110  OE1       84.6630   54.2200   18.9530 O.co2 168  GLU168     -0.2457
    111  OE2       84.0430   52.0800   18.8240 O.co2 168  GLU168     -0.2457
    112  N         84.2020   57.1810   13.6780 N.3   170  LYS170     -0.1245
    113  CA        85.5180   56.8680   13.1400 C.3   170  LYS170      0.1561
    114  C         86.4140   58.1150   13.2280 C.2   170  LYS170      0.2260
    115  O         86.0350   59.1870   12.7690 O.2   170  LYS170     -0.2867
    116  CB        85.3780   56.3150   11.7100 C.3   170  LYS170      0.0271
    117  CG        86.6990   56.0690   11.0090 C.3   170  LYS170      0.0035
    118  CD        86.7870   54.7080   10.2870 C.3   170  LYS170      0.0206
    119  CE        88.2750   54.3400    9.9350 C.3   170  LYS170      0.1093
    120  NZ        89.3250   54.8820   10.9090 N.3   170  LYS170     -0.1314
    121  N         88.7600   61.1380   12.7290 N.3   172  ARG172     -0.1245
    122  CA        89.0360   61.9420   11.5610 C.3   172  ARG172      0.1563
    123  C         90.5300   62.2190   11.5190 C.2   172  ARG172      0.2260
    124  O         91.1930   62.2170   12.5590 O.2   172  ARG172     -0.2867
    125  CB        88.2090   63.2340   11.6380 C.3   172  ARG172      0.0307
    126  CG        86.6820   63.0140   11.5330 C.3   172  ARG172      0.0489
    127  CD        86.3370   62.2210   10.3010 C.3   172  ARG172      0.2205
    128  NE        84.9170   62.2590    9.9250 N.pl3 172  ARG172     -0.0865
    129  CZ        84.0420   61.3220   10.2430 C.cat 172  ARG172      0.5346
    130  NH1       82.7640   61.4170    9.8400 N.pl3 172  ARG172      0.1354
    131  NH2       84.4540   60.2800   10.9490 N.pl3 172  ARG172      0.1354
@<TRIPOS>BOND
     1    35    37   ar
     2    35    34   ar
     3    33    34    1
     4    33    30    1
     5    29    30    1
     6    37    39   ar
     7    34    36   ar
     8    95    94    2
     9    30    31    1
    10    94    93    1
    11    39    40    1
    12    39    38   ar
    13    36    38   ar
    14   102   100    1
    15    96    97    1
    16    31    32    2
    17    97   100    1
    18    97    98    1
    19    89    88    2
    20   100   101    1
    21    93    92    1
    22    98    99    2
    23    88    92   am
    24    88    87    1
    25    87    90    1
    26    87    86    1
    27    46    45    1
    28    90    91    1
    29    41    42    1
    30    86    79   am
    31    80    79    2
    32    45    42    1
    33    79    78    1
    34    42    43    1
    35    71    72   ar
    36    71    69   ar
    37    74    72   ar
    38    74    76   ar
    39    81    78    1
    40    81    82    1
    41    72    70   ar
    42    78    77    1
    43    69    68   ar
    44    43    44    2
    45    76    75   ar
    46    77    65   am
    47    83    82    1
    48    83    84    1
    49    70    68   ar
    50    70    73   ar
    51    68    67    1
    52    66    65    2
    53    65    64    1
    54    75    73   ar
    55    85    84    1
    56    64    67    1
    57    64    63    1
    58    59    58    2
    59    63    58   am
    60    58    57    1
    61    62    60    1
    62    61    60    1
    63    28    26    1
    64    57    60    1
    65    57    56    1
    66    25    26    2
    67    25    24    1
    68    55    53   am
    69    54    53    2
    70    53    52    1
    71    52    51    1
    72    26    27    1
    73    24    23    1
    74    23    22    1
    75    47    48    1
    76    17    16    1
    77    51    48    1
    78    22    19    1
    79    21    20    2
    80    48    49    1
    81    16    13    1
    82    19    20    1
    83    19    18    1
    84    10     9    1
    85    11     9    1
    86     9     8    2
    87   130   129    1
    88   128   129    2
    89   128   127    1
    90   119   118    1
    91   119   120    1
    92    13    14    1
    93    13    12    1
    94    49    50    2
    95   129   131    1
    96     8     7    1
    97   118   117    1
    98   127   126    1
    99    14    15    2
   100     7     6    1
   101   117   116    1
   102   123   122    1
   103   123   124    2
   104   126   125    1
   105   122   125    1
   106   122   121    1
   107   116   113    1
   108     6     5    1
   109   115   114    2
   110   113   114    1
   111   113   112    1
   112     5     2    1
   113     4     3    2
   114     3     2    1
   115     2     1    1
   116   106   105    2
   117   105   104    1
   118   103   104    1
   119   104   107    1
   120   108   107    1
   121   108   109    1
   122   109   111   ar
   123   109   110   ar
