@<TRIPOS>MOLECULE
tmp/2i7nA00.pdb
 71 66 0 0 0
SMALL
GASTEIGER

@<TRIPOS>ATOM
      1  N          6.6460   34.1060   14.2790 N.3   146  ASN146     -0.1240
      2  CA         6.1280   33.1350   15.2380 C.3   146  ASN146      0.1653
      3  C          5.6080   31.9010   14.5100 C.2   146  ASN146      0.2266
      4  O          4.5510   31.9360   13.8870 O.2   146  ASN146     -0.2867
      5  CB         5.0170   33.7820   16.0720 C.3   146  ASN146      0.1155
      6  CG         4.5600   32.8950   17.2200 C.2   146  ASN146      0.2627
      7  OD1        5.3490   32.1410   17.7830 O.2   146  ASN146     -0.2716
      8  ND2        3.2870   32.9950   17.5730 N.am  146  ASN146     -0.0877
      9  N          4.0010   28.3700   14.4920 N.3   148  GLY148     -0.1210
     10  CA         3.1780   27.3890   15.1830 C.3   148  GLY148      0.1956
     11  C          2.7050   26.4120   14.1190 C.2   148  GLY148      0.2613
     12  O          3.5060   26.0020   13.2820 O.2   148  GLY148     -0.2717
     13  N          1.4270   26.0340   14.1300 N.am  149  SER149     -0.1938
     14  CA         0.9180   25.1150   13.1130 C.3   149  SER149      0.2055
     15  C          1.0690   25.8580   11.7980 C.2   149  SER149      0.2644
     16  O          1.3830   25.2740   10.7560 O.2   149  SER149     -0.2714
     17  CB        -0.5540   24.7650   13.3680 C.3   149  SER149      0.2130
     18  OG        -1.3970   25.8960   13.2500 O.3   149  SER149     -0.2179
     19  N          0.8230   27.1710   11.8710 N.am  150  GLY150     -0.1939
     20  CA         0.9760   28.0430   10.7270 C.3   150  GLY150      0.2014
     21  C          1.9950   29.0970   11.1400 C.2   150  GLY150      0.2639
     22  O          2.5680   28.9930   12.2230 O.2   150  GLY150     -0.2714
     23  N          2.2080   30.1190   10.3090 N.am  151  VAL151     -0.1963
     24  CA         3.2000   31.1400   10.6300 C.3   151  VAL151      0.1727
     25  C          2.6370   32.5520   10.5900 C.2   151  VAL151      0.2616
     26  O          1.9750   32.9400    9.6320 O.2   151  VAL151     -0.2715
     27  CB         4.4040   31.0950    9.6450 C.3   151  VAL151      0.0290
     28  CG1        5.4860   32.0880   10.1030 C.3   151  VAL151      0.0023
     29  CG2        4.9960   29.6690    9.5740 C.3   151  VAL151      0.0023
     30  N          2.9090   33.3100   11.6460 N.am  152  SER152     -0.1950
     31  CA         2.4600   34.6960   11.7330 C.3   152  SER152      0.1924
     32  C          3.7050   35.5690   11.8540 C.2   152  SER152      0.2314
     33  O          4.6190   35.2230   12.5810 O.2   152  SER152     -0.2863
     34  CB         1.5900   34.8870   12.9750 C.3   152  SER152      0.2116
     35  OG         0.2430   35.0990   12.6220 O.3   152  SER152     -0.2180
     36  N          0.3380   42.3080   13.2000 N.3   164  ARG164     -0.1245
     37  CA         0.6460   41.2140   12.2890 C.3   164  ARG164      0.1563
     38  C          0.7420   41.8120   10.8910 C.2   164  ARG164      0.2260
     39  O         -0.2100   42.4150   10.4000 O.2   164  ARG164     -0.2867
     40  CB        -0.4680   40.1670   12.3420 C.3   164  ARG164      0.0307
     41  CG        -0.2600   38.9710   11.4290 C.3   164  ARG164      0.0489
     42  CD        -1.3150   37.9220   11.7150 C.3   164  ARG164      0.2205
     43  NE        -1.1000   36.6660   11.0060 N.pl3 164  ARG164     -0.0865
     44  CZ        -1.3350   36.4760    9.7110 C.cat 164  ARG164      0.5346
     45  NH1       -1.7890   37.4610    8.9500 N.pl3 164  ARG164      0.1354
     46  NH2       -1.1480   35.2750    9.1850 N.pl3 164  ARG164      0.1354
     47  N          1.6510   36.4760    7.0240 N.3   167  GLY167     -0.1210
     48  CA         1.8860   35.1360    7.5370 C.3   167  GLY167      0.1956
     49  C          1.8530   34.1230    6.4150 C.2   167  GLY167      0.2613
     50  O          1.7320   34.4840    5.2480 O.2   167  GLY167     -0.2717
     51  N          1.9720   32.8400    6.7570 N.am  168  THR168     -0.1938
     52  CA         1.9340   31.8010    5.7320 C.3   168  THR168      0.2028
     53  C          1.2990   30.5760    6.3630 C.2   168  THR168      0.2642
     54  O          1.5220   30.3070    7.5420 O.2   168  THR168     -0.2714
     55  CB         3.3560   31.4080    5.2250 C.3   168  THR168      0.1808
     56  OG1        3.2730   30.2230    4.4160 O.3   168  THR168     -0.2208
     57  CG2        4.2860   31.1120    6.3930 C.3   168  THR168      0.0379
     58  N          0.5160   29.8470    5.5870 N.am  169  SER169     -0.1949
     59  CA        -0.1260   28.6460    6.1110 C.3   169  SER169      0.1924
     60  C          0.8330   27.4390    6.0620 C.2   169  SER169      0.2314
     61  O          0.5120   26.3500    6.5630 O.2   169  SER169     -0.2863
     62  CB        -1.4090   28.3580    5.3260 C.3   169  SER169      0.2116
     63  OG        -1.1150   27.9540    4.0040 O.3   169  SER169     -0.2180
     64  N          7.0760   26.8000   18.5930 N.3   279  ASN279     -0.1240
     65  CA         7.2360   25.3780   18.8730 C.3   279  ASN279      0.1653
     66  C          7.8370   24.6440   17.6740 C.2   279  ASN279      0.2266
     67  O          8.2440   23.4910   17.7780 O.2   279  ASN279     -0.2867
     68  CB         5.8850   24.7530   19.2440 C.3   279  ASN279      0.1155
     69  CG         4.8090   25.0250   18.2080 C.2   279  ASN279      0.2627
     70  OD1        5.0280   24.8550   17.0130 O.2   279  ASN279     -0.2716
     71  ND2        3.6340   25.4380   18.6700 N.am  279  ASN279     -0.0877
@<TRIPOS>BOND
     1    63    62    1
     2    56    55    1
     3    55    52    1
     4    55    57    1
     5    50    49    2
     6    62    59    1
     7    58    59    1
     8    58    53   am
     9    52    53    1
    10    52    51    1
    11    60    59    1
    12    60    61    2
    13    53    54    2
    14    49    51   am
    15    49    48    1
    16    47    48    1
    17    45    44    1
    18    46    44    1
    19    29    27    1
    20    26    25    2
    21    27    28    1
    22    27    24    1
    23    44    43    2
    24    23    24    1
    25    23    21   am
    26    39    38    2
    27    25    24    1
    28    25    30   am
    29    20    21    1
    30    20    19    1
    31    16    15    2
    32    38    37    1
    33    43    42    1
    34    21    22    2
    35    41    42    1
    36    41    40    1
    37    30    31    1
    38    31    32    1
    39    31    34    1
    40    15    19   am
    41    15    14    1
    42    32    33    2
    43    37    40    1
    44    37    36    1
    45    35    34    1
    46    14    17    1
    47    14    13    1
    48    18    17    1
    49    12    11    2
    50     4     3    2
    51    11    13   am
    52    11    10    1
    53     1     2    1
    54     9    10    1
    55     3     2    1
    56     2     5    1
    57     5     6    1
    58    70    69    2
    59     6     8   am
    60     6     7    2
    61    66    67    2
    62    66    65    1
    63    69    71   am
    64    69    68    1
    65    64    65    1
    66    65    68    1
