@<TRIPOS>MOLECULE
tmp/2i7nA01.pdb
 128 125 0 0 0
SMALL
GASTEIGER

@<TRIPOS>ATOM
      1  N         14.5250   18.7270   -7.0100 N.3   205  LYS205     -0.1245
      2  CA        15.2690   18.9050   -8.2440 C.3   205  LYS205      0.1561
      3  C         16.0780   20.1760   -8.0070 C.2   205  LYS205      0.2260
      4  O         15.5080   21.2230   -7.6730 O.2   205  LYS205     -0.2867
      5  CB        14.3260   19.1040   -9.4310 C.3   205  LYS205      0.0271
      6  CG        15.0500   19.4800  -10.7290 C.3   205  LYS205      0.0035
      7  CD        14.0710   19.7030  -11.8730 C.3   205  LYS205      0.0206
      8  CE        13.3620   18.4160  -12.2500 C.3   205  LYS205      0.1093
      9  NZ        12.2920   18.6630  -13.2580 N.3   205  LYS205     -0.1314
     10  N         19.0150   23.2310   -9.1050 N.3   207  VAL207     -0.1245
     11  CA        19.3690   24.0450  -10.2560 C.3   207  VAL207      0.1561
     12  C         20.4260   23.3450  -11.1160 C.2   207  VAL207      0.2260
     13  O         20.3150   23.3160  -12.3360 O.2   207  VAL207     -0.2867
     14  CB        19.9020   25.4210   -9.8160 C.3   207  VAL207      0.0252
     15  CG1       20.5170   26.1690  -11.0180 C.3   207  VAL207      0.0019
     16  CG2       18.7460   26.2510   -9.2330 C.3   207  VAL207      0.0019
     17  N         19.3830   20.9450  -13.7180 N.3   210  ILE210     -0.1231
     18  CA        18.8420   21.5080  -14.9430 C.3   210  ILE210      0.1692
     19  C         19.9230   22.1350  -15.8230 C.2   210  ILE210      0.2592
     20  O         19.9400   21.9240  -17.0320 O.2   210  ILE210     -0.2718
     21  CB        17.7730   22.5950  -14.6310 C.3   210  ILE210      0.0266
     22  CG1       16.5520   21.9560  -13.9600 C.3   210  ILE210      0.0019
     23  CG2       17.3540   23.3100  -15.9160 C.3   210  ILE210      0.0020
     24  CD1       15.5140   22.9500  -13.4910 C.3   210  ILE210      0.0001
     25  N         20.8280   22.8930  -15.2130 N.am  211  TYR211     -0.1976
     26  CA        21.8790   23.5870  -15.9590 C.3   211  TYR211      0.1639
     27  C         23.2730   22.9620  -15.8790 C.2   211  TYR211      0.2290
     28  O         24.2240   23.4920  -16.4570 O.2   211  TYR211     -0.2864
     29  CB        21.9470   25.0450  -15.4910 C.3   211  TYR211      0.0560
     30  CG        20.6440   25.7910  -15.6660 C.ar  211  TYR211     -0.0198
     31  CD1       20.2820   26.3230  -16.9030 C.ar  211  TYR211     -0.0009
     32  CD2       19.7520   25.9350  -14.5990 C.ar  211  TYR211     -0.0009
     33  CE1       19.0650   26.9770  -17.0740 C.ar  211  TYR211      0.0417
     34  CE2       18.5330   26.5840  -14.7630 C.ar  211  TYR211      0.0417
     35  CZ        18.1980   27.1020  -16.0010 C.ar  211  TYR211      0.1957
     36  OH        16.9900   27.7390  -16.1690 O.3   211  TYR211     -0.2866
     37  N         20.7950   34.1070  -13.7630 N.3   218  PHE218     -0.1241
     38  CA        19.8460   34.3490  -12.6770 C.3   218  PHE218      0.1605
     39  C         20.5360   34.4600  -11.3230 C.2   218  PHE218      0.2264
     40  O         19.8740   34.6300  -10.2960 O.2   218  PHE218     -0.2867
     41  CB        18.8090   33.2200  -12.6200 C.3   218  PHE218      0.0534
     42  CG        17.7950   33.2610  -13.7290 C.ar  218  PHE218     -0.0203
     43  CD1       16.8860   32.2170  -13.8870 C.ar  218  PHE218     -0.0042
     44  CD2       17.7330   34.3490  -14.6060 C.ar  218  PHE218     -0.0042
     45  CE1       15.9260   32.2530  -14.9020 C.ar  218  PHE218     -0.0003
     46  CE2       16.7830   34.3980  -15.6210 C.ar  218  PHE218     -0.0003
     47  CZ        15.8750   33.3470  -15.7710 C.ar  218  PHE218     -0.0000
     48  N         21.8030   32.1920   -9.7140 N.3   220  LEU220     -0.1245
     49  CA        21.4100   31.0140   -8.9450 C.3   220  LEU220      0.1561
     50  C         22.5130   29.9720   -8.8850 C.2   220  LEU220      0.2260
     51  O         22.9780   29.4950   -9.9160 O.2   220  LEU220     -0.2867
     52  CB        20.1650   30.3590   -9.5550 C.3   220  LEU220      0.0270
     53  CG        18.7840   30.9300   -9.2480 C.3   220  LEU220      0.0019
     54  CD1       17.7460   30.1930  -10.0760 C.3   220  LEU220      0.0001
     55  CD2       18.4920   30.7880   -7.7640 C.3   220  LEU220      0.0001
     56  N         21.1670   25.4820   -5.1910 N.3   224  ALA224     -0.1231
     57  CA        19.8330   25.9750   -4.8700 C.3   224  ALA224      0.1694
     58  C         18.7630   25.0110   -5.3970 C.2   224  ALA224      0.2592
     59  O         18.9360   24.3660   -6.4250 O.2   224  ALA224     -0.2718
     60  CB        19.6250   27.3670   -5.4680 C.3   224  ALA224      0.0304
     61  N         17.6520   24.9170   -4.6860 N.am  225  VAL225     -0.1966
     62  CA        16.5700   24.0440   -5.1160 C.3   225  VAL225      0.1727
     63  C         15.7810   24.6960   -6.2540 C.2   225  VAL225      0.2616
     64  O         15.3030   25.8290   -6.1340 O.2   225  VAL225     -0.2715
     65  CB        15.5970   23.7450   -3.9510 C.3   225  VAL225      0.0290
     66  CG1       14.4860   22.7610   -4.4200 C.3   225  VAL225      0.0023
     67  CG2       16.3680   23.1530   -2.7690 C.3   225  VAL225      0.0023
     68  N         15.6440   23.9780   -7.3610 N.am  226  ALA226     -0.1963
     69  CA        14.8770   24.4800   -8.4940 C.3   226  ALA226      0.1728
     70  C         13.3890   24.1780   -8.2900 C.2   226  ALA226      0.2616
     71  O         12.5120   25.0300   -8.5340 O.2   226  ALA226     -0.2715
     72  CB        15.3690   23.8230   -9.8020 C.3   226  ALA226      0.0334
     73  N         13.1070   22.9570   -7.8580 N.am  227  SER227     -0.1950
     74  CA        11.7340   22.5220   -7.6510 C.3   227  SER227      0.1924
     75  C         11.6510   21.5510   -6.4740 C.2   227  SER227      0.2314
     76  O         12.2180   20.4530   -6.5230 O.2   227  SER227     -0.2863
     77  CB        11.1980   21.8460   -8.9230 C.3   227  SER227      0.2116
     78  OG         9.8390   21.4560   -8.7650 O.3   227  SER227     -0.2180
     79  N         12.8660   26.8870    3.8580 N.3   256  ASN256     -0.1240
     80  CA        13.3370   27.7700    2.7890 C.3   256  ASN256      0.1653
     81  C         12.2590   28.7980    2.4230 C.2   256  ASN256      0.2266
     82  O         12.5510   29.9790    2.1640 O.2   256  ASN256     -0.2867
     83  CB        13.7210   26.9640    1.5380 C.3   256  ASN256      0.1155
     84  CG        15.1520   26.4380    1.6020 C.2   256  ASN256      0.2627
     85  OD1       15.9230   26.8380    2.4750 O.2   256  ASN256     -0.2716
     86  ND2       15.5150   25.5540    0.6680 N.am  256  ASN256     -0.0877
     87  N         20.2350   29.3830    7.2950 N.3   293  TYR293     -0.1227
     88  CA        20.7370   29.2940    5.9260 C.3   293  TYR293      0.1736
     89  C         19.8120   30.0180    4.9510 C.2   293  TYR293      0.2595
     90  O         20.2590   30.7230    4.0370 O.2   293  TYR293     -0.2718
     91  CB        20.8590   27.8360    5.4800 C.3   293  TYR293      0.0548
     92  CG        21.4410   27.6960    4.0880 C.ar  293  TYR293     -0.0200
     93  CD1       22.7890   27.9760    3.8420 C.ar  293  TYR293     -0.0009
     94  CD2       20.6380   27.3370    3.0090 C.ar  293  TYR293     -0.0009
     95  CE1       23.3180   27.9050    2.5510 C.ar  293  TYR293      0.0417
     96  CE2       21.1540   27.2630    1.7200 C.ar  293  TYR293      0.0417
     97  CZ        22.4950   27.5490    1.4970 C.ar  293  TYR293      0.1957
     98  OH        23.0150   27.4870    0.2230 O.3   293  TYR293     -0.2866
     99  N         18.5080   29.8270    5.1490 N.am  294  ALA294     -0.1980
    100  CA        17.5050   30.4370    4.2930 C.3   294  ALA294      0.1597
    101  C         17.5880   31.9530    4.2970 C.2   294  ALA294      0.2287
    102  O         17.5680   32.5770    3.2450 O.2   294  ALA294     -0.2864
    103  CB        16.0960   29.9860    4.7210 C.3   294  ALA294      0.0319
    104  N         20.6170   33.0440    2.4580 N.3   297  PHE297     -0.1227
    105  CA        20.4200   32.8220    1.0300 C.3   297  PHE297      0.1736
    106  C         19.5570   33.8910    0.3690 C.2   297  PHE297      0.2595
    107  O         19.9740   34.5460   -0.5790 O.2   297  PHE297     -0.2718
    108  CB        19.7660   31.4580    0.7830 C.3   297  PHE297      0.0547
    109  CG        19.4340   31.2060   -0.6660 C.ar  297  PHE297     -0.0202
    110  CD1       20.3810   30.6680   -1.5340 C.ar  297  PHE297     -0.0042
    111  CD2       18.1960   31.5710   -1.1770 C.ar  297  PHE297     -0.0042
    112  CE1       20.0940   30.5090   -2.9000 C.ar  297  PHE297     -0.0003
    113  CE2       17.9050   31.4180   -2.5350 C.ar  297  PHE297     -0.0003
    114  CZ        18.8580   30.8860   -3.3960 C.ar  297  PHE297     -0.0000
    115  N         18.3300   34.0570    0.8620 N.am  298  TRP298     -0.1976
    116  CA        17.4160   35.0150    0.2730 C.3   298  TRP298      0.1640
    117  C         17.8550   36.4780    0.3940 C.2   298  TRP298      0.2290
    118  O         17.4830   37.2960   -0.4380 O.2   298  TRP298     -0.2864
    119  CB        16.0270   34.8600    0.8960 C.3   298  TRP298      0.0576
    120  CG        15.3690   33.5320    0.5930 C.ar  298  TRP298      0.0006
    121  CD1       15.1390   32.5010    1.4700 C.ar  298  TRP298      0.0946
    122  CD2       14.8590   33.1010   -0.6710 C.ar  298  TRP298      0.0152
    123  NE1       14.5120   31.4580    0.8230 N.ar  298  TRP298     -0.2442
    124  CE2       14.3310   31.7980   -0.4920 C.ar  298  TRP298      0.0810
    125  CE3       14.7990   33.6860   -1.9420 C.ar  298  TRP298      0.0012
    126  CZ2       13.7420   31.0760   -1.5350 C.ar  298  TRP298      0.0191
    127  CZ3       14.2100   32.9610   -2.9870 C.ar  298  TRP298      0.0001
    128  CH2       13.6950   31.6680   -2.7720 C.ar  298  TRP298      0.0015
@<TRIPOS>BOND
     1    33    31   ar
     2    33    35   ar
     3    20    19    2
     4    31    30   ar
     5    28    27    2
     6    36    35    1
     7    35    34   ar
     8    26    27    1
     9    26    29    1
    10    26    25    1
    11    23    21    1
    12    19    25   am
    13    19    18    1
    14    47    46   ar
    15    47    45   ar
    16    30    29    1
    17    30    32   ar
    18    46    44   ar
    19    18    21    1
    20    18    17    1
    21    45    43   ar
    22    34    32   ar
    23    21    22    1
    24    44    42   ar
    25    22    24    1
    26    43    42   ar
    27    37    38    1
    28    42    41    1
    29     9     8    1
    30    38    41    1
    31    38    39    1
    32    13    12    2
    33     8     7    1
    34     7     6    1
    35    39    40    2
    36    12    11    1
    37    15    14    1
    38     6     5    1
    39    11    14    1
    40    11    10    1
    41    54    53    1
    42    51    50    2
    43    14    16    1
    44    72    69    1
    45    48    49    1
    46    52    53    1
    47    52    49    1
    48     5     2    1
    49    53    55    1
    50    49    50    1
    51    77    78    1
    52    77    74    1
    53    71    70    2
    54    69    70    1
    55    69    68    1
    56    70    73   am
    57     2     3    1
    58     2     1    1
    59     3     4    2
    60    73    74    1
    61    74    75    1
    62    68    63   am
    63    76    75    2
    64    59    58    2
    65    63    64    2
    66    63    62    1
    67    60    57    1
    68    58    57    1
    69    58    61   am
    70    56    57    1
    71    62    61    1
    72    62    65    1
    73    66    65    1
    74    65    67    1
    75   114   112   ar
    76   114   113   ar
    77   127   128   ar
    78   127   125   ar
    79   112   110   ar
    80   128   126   ar
    81   113   111   ar
    82   125   122   ar
    83   126   124   ar
    84   110   109   ar
    85   111   109   ar
    86   122   124   ar
    87   122   120   ar
    88   109   108    1
    89   107   106    2
    90   124   123   ar
    91   118   117    2
    92    98    97    1
    93   116   117    1
    94   116   115    1
    95   116   119    1
    96   106   115   am
    97   106   105    1
    98   120   119    1
    99   120   121   ar
   100    86    84   am
   101   108   105    1
   102   123   121   ar
   103   105   104    1
   104    97    96   ar
   105    97    95   ar
   106    83    84    1
   107    83    80    1
   108    84    85    2
   109    96    94   ar
   110    82    81    2
   111    81    80    1
   112    95    93   ar
   113    80    79    1
   114    94    92   ar
   115   102   101    2
   116    93    92   ar
   117    90    89    2
   118    92    91    1
   119   100   101    1
   120   100   103    1
   121   100    99    1
   122    89    99   am
   123    89    88    1
   124    91    88    1
   125    88    87    1
