@<TRIPOS>MOLECULE
tmp/2i7pA01.pdb
 144 143 0 0 0
SMALL
GASTEIGER

@<TRIPOS>ATOM
      1  N        -24.3050  -28.1890    9.8530 N.3   233  LYS233     -0.1245
      2  CA       -23.8840  -29.4980   10.3440 C.3   233  LYS233      0.1561
      3  C        -22.4670  -29.3280   10.8860 C.2   233  LYS233      0.2260
      4  O        -21.5670  -28.8900   10.1670 O.2   233  LYS233     -0.2867
      5  CB       -23.8800  -30.5270    9.2120 C.3   233  LYS233      0.0271
      6  CG       -23.3670  -31.9070    9.6320 C.3   233  LYS233      0.0035
      7  CD       -23.4590  -32.9230    8.4920 C.3   233  LYS233      0.0206
      8  CE       -24.9080  -33.1920    8.0980 C.3   233  LYS233      0.1093
      9  NZ       -25.0290  -34.1350    6.9480 N.3   233  LYS233     -0.1314
     10  N        -18.8560  -30.6690   12.9000 N.3   235  VAL235     -0.1245
     11  CA       -17.9600  -31.8090   12.8310 C.3   235  VAL235      0.1561
     12  C        -18.4180  -32.8860   13.8180 C.2   235  VAL235      0.2260
     13  O        -18.2330  -34.0770   13.5750 O.2   235  VAL235     -0.2867
     14  CB       -16.5030  -31.3820   13.1540 C.3   235  VAL235      0.0252
     15  CG1      -15.6240  -32.6050   13.3310 C.3   235  VAL235      0.0019
     16  CG2      -15.9550  -30.5130   12.0240 C.3   235  VAL235      0.0019
     17  N        -21.0490  -35.4450   12.7130 N.3   238  ILE238     -0.1231
     18  CA       -20.5500  -36.5130   11.8620 C.3   238  ILE238      0.1692
     19  C        -19.7150  -37.5340   12.6310 C.2   238  ILE238      0.2592
     20  O        -19.8850  -38.7440   12.4580 O.2   238  ILE238     -0.2718
     21  CB       -19.6950  -35.9390   10.7090 C.3   238  ILE238      0.0266
     22  CG1      -20.5430  -34.9940    9.8560 C.3   238  ILE238      0.0019
     23  CG2      -19.1370  -37.0680    9.8570 C.3   238  ILE238      0.0020
     24  CD1      -19.7740  -34.3370    8.7270 C.3   238  ILE238      0.0001
     25  N        -18.8200  -37.0450   13.4830 N.am  239  TYR239     -0.1976
     26  CA       -17.9440  -37.9190   14.2540 C.3   239  TYR239      0.1639
     27  C        -18.3730  -38.0710   15.7130 C.2   239  TYR239      0.2290
     28  O        -17.6810  -38.7160   16.5020 O.2   239  TYR239     -0.2864
     29  CB       -16.5070  -37.3900   14.1780 C.3   239  TYR239      0.0560
     30  CG       -15.9950  -37.2380   12.7570 C.ar  239  TYR239     -0.0198
     31  CD1      -15.5510  -38.3440   12.0310 C.ar  239  TYR239     -0.0009
     32  CD2      -15.9970  -35.9930   12.1230 C.ar  239  TYR239     -0.0009
     33  CE1      -15.1250  -38.2150   10.7090 C.ar  239  TYR239      0.0417
     34  CE2      -15.5740  -35.8550   10.8020 C.ar  239  TYR239      0.0417
     35  CZ       -15.1420  -36.9690   10.1030 C.ar  239  TYR239      0.1957
     36  OH       -14.7400  -36.8430    8.7970 O.3   239  TYR239     -0.2866
     37  N        -12.8440  -34.3670   15.4250 N.3   243  TYR243     -0.1241
     38  CA       -12.2570  -35.2100   14.3950 C.3   243  TYR243      0.1605
     39  C        -10.7550  -35.2360   14.6710 C.2   243  TYR243      0.2264
     40  O         -9.9710  -34.5100   14.0550 O.2   243  TYR243     -0.2867
     41  CB       -12.5490  -34.6530   12.9970 C.3   243  TYR243      0.0534
     42  CG       -12.1450  -35.5780   11.8620 C.ar  243  TYR243     -0.0201
     43  CD1      -11.7780  -36.9040   12.1050 C.ar  243  TYR243     -0.0009
     44  CD2      -12.1490  -35.1310   10.5400 C.ar  243  TYR243     -0.0009
     45  CE1      -11.4270  -37.7590   11.0580 C.ar  243  TYR243      0.0417
     46  CE2      -11.7990  -35.9780    9.4890 C.ar  243  TYR243      0.0417
     47  CZ       -11.4400  -37.2870    9.7560 C.ar  243  TYR243      0.1957
     48  OH       -11.0880  -38.1190    8.7210 O.3   243  TYR243     -0.2866
     49  N         -9.9190  -31.4180   14.0850 N.3   248  LEU248     -0.1245
     50  CA       -11.0190  -30.5130   13.7790 C.3   248  LEU248      0.1561
     51  C        -11.9550  -30.5300   14.9750 C.2   248  LEU248      0.2260
     52  O        -12.6200  -31.5290   15.2360 O.2   248  LEU248     -0.2867
     53  CB       -11.7770  -30.9650   12.5300 C.3   248  LEU248      0.0270
     54  CG       -11.2130  -30.5500   11.1740 C.3   248  LEU248      0.0019
     55  CD1      -12.0920  -31.1220   10.0610 C.3   248  LEU248      0.0001
     56  CD2      -11.1720  -29.0310   11.0880 C.3   248  LEU248      0.0001
     57  N        -16.9210  -28.4980   17.4580 N.3   251  TRP251     -0.1227
     58  CA       -17.7750  -27.3350   17.2310 C.3   251  TRP251      0.1737
     59  C        -17.5550  -26.6430   15.8840 C.2   251  TRP251      0.2595
     60  O        -18.3270  -25.7630   15.5030 O.2   251  TRP251     -0.2718
     61  CB       -17.6060  -26.3110   18.3630 C.3   251  TRP251      0.0564
     62  CG       -16.1820  -25.9960   18.7120 C.ar  251  TRP251      0.0003
     63  CD1      -15.4420  -26.5500   19.7220 C.ar  251  TRP251      0.0946
     64  CD2      -15.3200  -25.0640   18.0500 C.ar  251  TRP251      0.0152
     65  NE1      -14.1750  -26.0180   19.7280 N.ar  251  TRP251     -0.2442
     66  CE2      -14.0720  -25.1040   18.7130 C.ar  251  TRP251      0.0810
     67  CE3      -15.4780  -24.2000   16.9600 C.ar  251  TRP251      0.0012
     68  CZ2      -12.9900  -24.3110   18.3200 C.ar  251  TRP251      0.0191
     69  CZ3      -14.3970  -23.4120   16.5690 C.ar  251  TRP251      0.0001
     70  CH2      -13.1710  -23.4750   17.2490 C.ar  251  TRP251      0.0015
     71  N        -16.5140  -27.0320   15.1560 N.am  252  ALA252     -0.1966
     72  CA       -16.2520  -26.4130   13.8630 C.3   252  ALA252      0.1728
     73  C        -17.3770  -26.7860   12.8950 C.2   252  ALA252      0.2616
     74  O        -17.9460  -27.8740   12.9880 O.2   252  ALA252     -0.2715
     75  CB       -14.9050  -26.8780   13.3200 C.3   252  ALA252      0.0334
     76  N        -17.7140  -25.8820   11.9790 N.am  253  VAL253     -0.1963
     77  CA       -18.7720  -26.1700   11.0130 C.3   253  VAL253      0.1727
     78  C        -18.2460  -27.1010    9.9240 C.2   253  VAL253      0.2616
     79  O        -17.2450  -26.7960    9.2610 O.2   253  VAL253     -0.2715
     80  CB       -19.2940  -24.8870   10.3350 C.3   253  VAL253      0.0290
     81  CG1      -20.3980  -25.2400    9.3340 C.3   253  VAL253      0.0023
     82  CG2      -19.8150  -23.9100   11.3860 C.3   253  VAL253      0.0023
     83  N        -18.9150  -28.2380    9.7490 N.am  254  ALA254     -0.1963
     84  CA       -18.5290  -29.2060    8.7270 C.3   254  ALA254      0.1728
     85  C        -19.1930  -28.8270    7.4200 C.2   254  ALA254      0.2616
     86  O        -18.5590  -28.8060    6.3830 O.2   254  ALA254     -0.2715
     87  CB       -18.9640  -30.6080    9.1260 C.3   254  ALA254      0.0334
     88  N        -20.4790  -28.5170    7.4750 N.am  255  SER255     -0.1950
     89  CA       -21.2050  -28.1620    6.2670 C.3   255  SER255      0.1924
     90  C        -22.2940  -27.1150    6.5080 C.2   255  SER255      0.2314
     91  O        -23.3140  -27.3980    7.1410 O.2   255  SER255     -0.2863
     92  CB       -21.8150  -29.4310    5.6570 C.3   255  SER255      0.2116
     93  OG       -22.5160  -29.1440    4.4620 O.3   255  SER255     -0.2180
     94  N        -17.5200  -16.6350    7.9740 N.3   284  ASN284     -0.1240
     95  CA       -16.4670  -17.6360    8.0730 C.3   284  ASN284      0.1653
     96  C        -15.7170  -17.7540    6.7460 C.2   284  ASN284      0.2266
     97  O        -14.4930  -17.9030    6.7290 O.2   284  ASN284     -0.2867
     98  CB       -17.0400  -19.0070    8.4700 C.3   284  ASN284      0.1155
     99  CG       -17.3590  -19.0990    9.9620 C.2   284  ASN284      0.2627
    100  OD1      -16.8630  -18.3080   10.7610 O.2   284  ASN284     -0.2716
    101  ND2      -18.1760  -20.0710   10.3380 N.am  284  ASN284     -0.0877
    102  N        -13.8610  -13.2390   14.7760 N.3   321  TYR321     -0.1227
    103  CA       -13.8490  -14.6290   15.2120 C.3   321  TYR321      0.1736
    104  C        -13.3320  -15.5260   14.0830 C.2   321  TYR321      0.2595
    105  O        -12.4570  -16.3690   14.2950 O.2   321  TYR321     -0.2718
    106  CB       -15.2680  -15.0420   15.5990 C.3   321  TYR321      0.0548
    107  CG       -15.5070  -16.5310   15.6570 C.ar  321  TYR321     -0.0200
    108  CD1      -15.1670  -17.2760   16.7840 C.ar  321  TYR321     -0.0009
    109  CD2      -16.1000  -17.1930   14.5850 C.ar  321  TYR321     -0.0009
    110  CE1      -15.4250  -18.6470   16.8390 C.ar  321  TYR321      0.0417
    111  CE2      -16.3570  -18.5530   14.6290 C.ar  321  TYR321      0.0417
    112  CZ       -16.0230  -19.2740   15.7570 C.ar  321  TYR321      0.1957
    113  OH       -16.3240  -20.6140   15.7980 O.3   321  TYR321     -0.2866
    114  N        -13.8670  -15.3180   12.8810 N.am  322  ALA322     -0.1980
    115  CA       -13.4820  -16.1110   11.7200 C.3   322  ALA322      0.1597
    116  C        -11.9990  -15.9620   11.4020 C.2   322  ALA322      0.2287
    117  O        -11.2960  -16.9560   11.2180 O.2   322  ALA322     -0.2864
    118  CB       -14.3310  -15.7170   10.5150 C.3   322  ALA322      0.0319
    119  N         -9.9290  -17.6980   13.9870 N.3   325  TYR325     -0.1227
    120  CA        -9.9800  -19.1370   13.7810 C.3   325  TYR325      0.1736
    121  C         -9.0710  -19.6070   12.6460 C.2   325  TYR325      0.2595
    122  O         -8.2330  -20.4910   12.8400 O.2   325  TYR325     -0.2718
    123  CB       -11.4180  -19.5850   13.4890 C.3   325  TYR325      0.0548
    124  CG       -11.5040  -21.0360   13.0740 C.ar  325  TYR325     -0.0200
    125  CD1      -11.3940  -22.0600   14.0180 C.ar  325  TYR325     -0.0009
    126  CD2      -11.6270  -21.3870   11.7290 C.ar  325  TYR325     -0.0009
    127  CE1      -11.3980  -23.3970   13.6240 C.ar  325  TYR325      0.0417
    128  CE2      -11.6340  -22.7200   11.3270 C.ar  325  TYR325      0.0417
    129  CZ       -11.5180  -23.7170   12.2750 C.ar  325  TYR325      0.1957
    130  OH       -11.5010  -25.0350   11.8730 O.3   325  TYR325     -0.2866
    131  N         -9.2290  -19.0170   11.4640 N.am  326  TRP326     -0.1976
    132  CA        -8.4260  -19.4270   10.3160 C.3   326  TRP326      0.1640
    133  C         -6.9270  -19.1640   10.4730 C.2   326  TRP326      0.2290
    134  O         -6.1100  -19.8770    9.8950 O.2   326  TRP326     -0.2864
    135  CB        -8.9430  -18.7580    9.0330 C.3   326  TRP326      0.0576
    136  CG       -10.3250  -19.2340    8.6130 C.ar  326  TRP326      0.0006
    137  CD1      -11.4940  -18.5220    8.6720 C.ar  326  TRP326      0.0946
    138  CD2      -10.6710  -20.5250    8.0890 C.ar  326  TRP326      0.0152
    139  NE1      -12.5430  -19.2890    8.2190 N.ar  326  TRP326     -0.2442
    140  CE2      -12.0670  -20.5210    7.8530 C.ar  326  TRP326      0.0810
    141  CE3       -9.9370  -21.6860    7.7960 C.ar  326  TRP326      0.0012
    142  CZ2      -12.7450  -21.6320    7.3350 C.ar  326  TRP326      0.0191
    143  CZ3      -10.6130  -22.7970    7.2790 C.ar  326  TRP326      0.0001
    144  CH2      -12.0060  -22.7570    7.0540 C.ar  326  TRP326      0.0015
@<TRIPOS>BOND
     1    93    92    1
     2    92    89    1
     3    89    90    1
     4    89    88    1
     5    86    85    2
     6    90    91    2
     7    97    96    2
     8    96    95    1
     9     9     8    1
    10   144   143   ar
    11   144   142   ar
    12   143   141   ar
    13   142   140   ar
    14    85    88   am
    15    85    84    1
    16   141   138   ar
    17   140   138   ar
    18   140   139   ar
    19    94    95    1
    20    95    98    1
    21   138   136   ar
    22     8     7    1
    23   139   137   ar
    24    98    99    1
    25     7     6    1
    26   136   137   ar
    27   136   135    1
    28    48    47    1
    29    24    22    1
    30    84    87    1
    31    84    83    1
    32    36    35    1
    33   135   132    1
    34     5     6    1
    35     5     2    1
    36    79    78    2
    37    81    80    1
    38    46    47   ar
    39    46    44   ar
    40    83    78   am
    41    47    45   ar
    42     1     2    1
    43    22    21    1
    44    23    21    1
    45   134   133    2
    46    78    77    1
    47    99   101   am
    48    99   100    2
    49    55    54    1
    50    35    33   ar
    51    35    34   ar
    52     4     3    2
    53   132   133    1
    54   132   131    1
    55    80    77    1
    56    80    82    1
    57     2     3    1
    58   118   115    1
    59    44    42   ar
    60    21    18    1
    61    33    31   ar
    62    34    32   ar
    63    77    76    1
    64    45    43   ar
    65    56    54    1
    66    54    53    1
    67   117   116    2
    68   128   126   ar
    69   128   129   ar
    70   116   115    1
    71   131   121   am
    72   115   114    1
    73   126   124   ar
    74    42    43   ar
    75    42    41    1
    76    18    19    1
    77    18    17    1
    78   130   129    1
    79    76    73   am
    80    16    14    1
    81    31    30   ar
    82    32    30   ar
    83   129   127   ar
    84    20    19    2
    85    53    50    1
    86    19    25   am
    87   121   122    2
    88   121   120    1
    89    30    29    1
    90    11    10    1
    91    11    14    1
    92    11    12    1
    93   114   104   am
    94    73    74    2
    95    73    72    1
    96    41    38    1
    97   124   123    1
    98   124   125   ar
    99    14    15    1
   100    75    72    1
   101    25    26    1
   102   123   120    1
   103    13    12    2
   104   127   125   ar
   105    50    49    1
   106    50    51    1
   107   120   119    1
   108    72    71    1
   109    40    39    2
   110   104   105    2
   111   104   103    1
   112    29    26    1
   113    26    27    1
   114    38    39    1
   115    38    37    1
   116   109   111   ar
   117   109   107   ar
   118   111   112   ar
   119   102   103    1
   120    51    52    2
   121    71    59   am
   122   103   106    1
   123    60    59    2
   124   106   107    1
   125   107   108   ar
   126    27    28    2
   127   112   113    1
   128   112   110   ar
   129    59    58    1
   130    69    67   ar
   131    69    70   ar
   132   108   110   ar
   133    67    64   ar
   134    58    57    1
   135    58    61    1
   136    70    68   ar
   137    64    62   ar
   138    64    66   ar
   139    68    66   ar
   140    61    62    1
   141    62    63   ar
   142    66    65   ar
   143    63    65   ar
