@<TRIPOS>MOLECULE
tmp/2i7pA00.pdb
 88 82 0 0 0
SMALL
GASTEIGER

@<TRIPOS>ATOM
      1  N        -14.5110    4.6340   -6.5560 N.3   127  GLU127     -0.1231
      2  CA       -14.8070    4.3190   -5.1630 C.3   127  GLU127      0.1699
      3  C        -13.6400    3.6830   -4.4140 C.2   127  GLU127      0.2592
      4  O        -13.2990    4.1020   -3.3070 O.2   127  GLU127     -0.2718
      5  CB       -16.0050    3.3710   -5.0670 C.3   127  GLU127      0.0402
      6  CG       -17.3520    3.9490   -5.4700 C.3   127  GLU127      0.1161
      7  CD       -17.4840    4.2130   -6.9630 C.2   127  GLU127      0.3649
      8  OE1      -16.8410    3.4950   -7.7730 O.co2 127  GLU127     -0.2457
      9  OE2      -18.2540    5.1300   -7.3240 O.co2 127  GLU127     -0.2457
     10  N        -13.0400    2.6570   -5.0070 N.am  128  LEU128     -0.1980
     11  CA       -11.9370    1.9750   -4.3580 C.3   128  LEU128      0.1596
     12  C        -10.7370    2.8940   -4.2080 C.2   128  LEU128      0.2287
     13  O        -10.0880    2.8850   -3.1650 O.2   128  LEU128     -0.2864
     14  CB       -11.5740    0.6940   -5.1170 C.3   128  LEU128      0.0297
     15  CG       -12.6980   -0.3580   -5.0840 C.3   128  LEU128      0.0022
     16  CD1      -12.2630   -1.6270   -5.8100 C.3   128  LEU128      0.0001
     17  CD2      -13.0590   -0.6860   -3.6430 C.3   128  LEU128      0.0001
     18  N        -12.7980   -5.0110    1.6430 N.3   174  ASN174     -0.1240
     19  CA       -13.9700   -4.1500    1.4930 C.3   174  ASN174      0.1653
     20  C        -15.2230   -4.9720    1.2540 C.2   174  ASN174      0.2266
     21  O        -15.3740   -5.6050    0.2090 O.2   174  ASN174     -0.2867
     22  CB       -13.7800   -3.1810    0.3300 C.3   174  ASN174      0.1155
     23  CG       -14.8910   -2.1590    0.2500 C.2   174  ASN174      0.2627
     24  OD1      -15.0620   -1.3450    1.1510 O.2   174  ASN174     -0.2716
     25  ND2      -15.6580   -2.2030   -0.8240 N.am  174  ASN174     -0.0877
     26  N        -19.1040   -5.0150    0.5840 N.3   176  GLY176     -0.1210
     27  CA       -20.3280   -4.3530    0.1760 C.3   176  GLY176      0.1956
     28  C        -21.2320   -5.4890   -0.2760 C.2   176  GLY176      0.2613
     29  O        -21.2840   -6.5280    0.3910 O.2   176  GLY176     -0.2717
     30  N        -21.9440   -5.3270   -1.3890 N.am  177  SER177     -0.1938
     31  CA       -22.7940   -6.4220   -1.8580 C.3   177  SER177      0.2055
     32  C        -21.8710   -7.6110   -2.1590 C.2   177  SER177      0.2644
     33  O        -22.2430   -8.7730   -1.9790 O.2   177  SER177     -0.2714
     34  CB       -23.5840   -6.0120   -3.1090 C.3   177  SER177      0.2130
     35  OG       -22.7490   -5.8710   -4.2390 O.3   177  SER177     -0.2179
     36  N        -20.6590   -7.2950   -2.6100 N.am  178  GLY178     -0.1939
     37  CA       -19.6470   -8.3030   -2.9030 C.3   178  GLY178      0.2014
     38  C        -18.3750   -7.9310   -2.1520 C.2   178  GLY178      0.2639
     39  O        -18.3640   -6.9360   -1.4180 O.2   178  GLY178     -0.2714
     40  N        -17.2970   -8.6840   -2.3390 N.am  179  VAL179     -0.1963
     41  CA       -16.0640   -8.3990   -1.6120 C.3   179  VAL179      0.1727
     42  C        -14.8180   -8.1630   -2.4560 C.2   179  VAL179      0.2616
     43  O        -14.4920   -8.9610   -3.3250 O.2   179  VAL179     -0.2715
     44  CB       -15.7360   -9.5440   -0.6260 C.3   179  VAL179      0.0290
     45  CG1      -14.5040   -9.1890    0.1960 C.3   179  VAL179      0.0023
     46  CG2      -16.9310   -9.8150    0.2700 C.3   179  VAL179      0.0023
     47  N        -14.1200   -7.0660   -2.1780 N.am  180  SER180     -0.1950
     48  CA       -12.8790   -6.7360   -2.8730 C.3   180  SER180      0.1924
     49  C        -11.7570   -6.7160   -1.8530 C.2   180  SER180      0.2314
     50  O        -11.8950   -6.1190   -0.7860 O.2   180  SER180     -0.2863
     51  CB       -12.9580   -5.3560   -3.5370 C.3   180  SER180      0.2116
     52  OG       -13.5590   -5.4250   -4.8150 O.3   180  SER180     -0.2180
     53  N         -5.9080   -4.6130   -6.3550 N.3   192  ARG192     -0.1245
     54  CA        -6.9540   -5.5500   -5.9850 C.3   192  ARG192      0.1563
     55  C         -6.3760   -6.9260   -6.2540 C.2   192  ARG192      0.2260
     56  O         -6.1710   -7.3040   -7.4070 O.2   192  ARG192     -0.2867
     57  CB        -8.2130   -5.3230   -6.8300 C.3   192  ARG192      0.0307
     58  CG        -9.3980   -6.2060   -6.4370 C.3   192  ARG192      0.0489
     59  CD       -10.6200   -5.9470   -7.3270 C.3   192  ARG192      0.2205
     60  NE       -11.7690   -6.7640   -6.9370 N.pl3 192  ARG192     -0.0865
     61  CZ       -11.9320   -8.0450   -7.2610 C.cat 192  ARG192      0.5346
     62  NH1      -11.0270   -8.6710   -7.9940 N.pl3 192  ARG192      0.1354
     63  NH2      -12.9980   -8.7110   -6.8330 N.pl3 192  ARG192      0.1354
     64  N        -11.0660  -11.2710   -4.6330 N.3   195  GLY195     -0.1210
     65  CA       -12.3200  -10.9080   -4.0160 C.3   195  GLY195      0.1956
     66  C        -13.2020  -12.1270   -3.9250 C.2   195  GLY195      0.2613
     67  O        -12.7630  -13.2420   -4.2090 O.2   195  GLY195     -0.2717
     68  N        -14.4400  -11.9150   -3.5030 N.am  196  THR196     -0.1938
     69  CA       -15.4010  -12.9990   -3.4060 C.3   196  THR196      0.2028
     70  C        -16.7680  -12.4050   -3.6700 C.2   196  THR196      0.2642
     71  O        -17.0500  -11.2600   -3.2920 O.2   196  THR196     -0.2714
     72  CB       -15.3660  -13.7050   -2.0170 C.3   196  THR196      0.1808
     73  OG1      -16.3810  -14.7140   -1.9740 O.3   196  THR196     -0.2208
     74  CG2      -15.5990  -12.7390   -0.9080 C.3   196  THR196      0.0379
     75  N        -17.6090  -13.1670   -4.3550 N.am  197  SER197     -0.1949
     76  CA       -18.9430  -12.6960   -4.6750 C.3   197  SER197      0.1924
     77  C        -19.8910  -12.9690   -3.5130 C.2   197  SER197      0.2314
     78  O        -21.0360  -12.5190   -3.5280 O.2   197  SER197     -0.2863
     79  CB       -19.4490  -13.3620   -5.9640 C.3   197  SER197      0.2116
     80  OG       -19.4740  -14.7730   -5.8400 O.3   197  SER197     -0.2180
     81  N        -19.9370   -1.0320    3.5830 N.3   307  ASN307     -0.1240
     82  CA       -21.2950   -0.8100    4.0810 C.3   307  ASN307      0.1653
     83  C        -21.8980   -2.0040    4.8140 C.2   307  ASN307      0.2266
     84  O        -22.8590   -1.8590    5.5620 O.2   307  ASN307     -0.2867
     85  CB       -22.2230   -0.3920    2.9340 C.3   307  ASN307      0.1155
     86  CG       -22.4390   -1.4970    1.9230 C.2   307  ASN307      0.2627
     87  OD1      -22.9390   -2.5740    2.2590 O.2   307  ASN307     -0.2716
     88  ND2      -22.0730   -1.2330    0.6680 N.am  307  ASN307     -0.0877
@<TRIPOS>BOND
     1    62    61    1
     2     8     7   ar
     3    56    55    2
     4    59    60    1
     5    59    58    1
     6     9     7   ar
     7    61    60    2
     8    61    63    1
     9     7     6    1
    10    57    58    1
    11    57    54    1
    12     1     2    1
    13    53    54    1
    14    55    54    1
    15    79    80    1
    16    79    76    1
    17    16    15    1
    18     6     5    1
    19     2     5    1
    20     2     3    1
    21    14    15    1
    22    14    11    1
    23    15    17    1
    24    10     3   am
    25    10    11    1
    26    52    51    1
    27    76    75    1
    28    76    77    1
    29    64    65    1
    30     3     4    2
    31    11    12    1
    32    75    70   am
    33    35    34    1
    34    67    66    2
    35    12    13    2
    36    65    66    1
    37    66    68   am
    38    70    69    1
    39    70    71    2
    40    51    48    1
    41    78    77    2
    42    68    69    1
    43    69    72    1
    44    43    42    2
    45    34    31    1
    46    37    36    1
    47    37    38    1
    48    48    47    1
    49    48    49    1
    50    36    32   am
    51    42    47   am
    52    42    41    1
    53    40    38   am
    54    40    41    1
    55    32    33    2
    56    32    31    1
    57    38    39    2
    58    72    73    1
    59    72    74    1
    60    31    30    1
    61    49    50    2
    62    41    44    1
    63    30    28   am
    64    25    23   am
    65    44    45    1
    66    44    46    1
    67    28    27    1
    68    28    29    2
    69    27    26    1
    70    21    20    2
    71    23    22    1
    72    23    24    2
    73    22    19    1
    74    88    86   am
    75    20    19    1
    76    19    18    1
    77    86    87    2
    78    86    85    1
    79    85    82    1
    80    81    82    1
    81    82    83    1
    82    83    84    2
