@<TRIPOS>MOLECULE
tmp/2i80B00.pdb
 130 127 0 0 0
SMALL
GASTEIGER

@<TRIPOS>ATOM
      1  N         34.6640   15.8130   21.3750 N.3    14  GLU14      -0.1245
      2  CA        35.0410   14.9090   22.4280 C.3    14  GLU14       0.1567
      3  C         36.4300   14.3500   22.1440 C.2    14  GLU14       0.2260
      4  O         36.9050   13.4540   22.8150 O.2    14  GLU14      -0.2867
      5  CB        33.9840   13.8350   22.4920 C.3    14  GLU14       0.0388
      6  CG        33.9970   13.0590   23.8000 C.3    14  GLU14       0.1160
      7  CD        34.1930   11.5760   23.5700 C.2    14  GLU14       0.3649
      8  OE1       34.7680   11.2130   22.5080 O.co2  14  GLU14      -0.2457
      9  OE2       33.7900   10.7940   24.4670 O.co2  14  GLU14      -0.2457
     10  N         38.9340   14.2270   25.2780 N.3    17  VAL17      -0.1231
     11  CA        38.6480   13.1580   26.2250 C.3    17  VAL17       0.1692
     12  C         38.9560   11.7980   25.5890 C.2    17  VAL17       0.2592
     13  O         39.5610   10.9230   26.2310 O.2    17  VAL17      -0.2718
     14  CB        37.2030   13.1920   26.6340 C.3    17  VAL17       0.0266
     15  CG1       36.9020   12.0000   27.5470 C.3    17  VAL17       0.0020
     16  CG2       36.8940   14.5180   27.2810 C.3    17  VAL17       0.0020
     17  N         38.5640   11.6430   24.3100 N.am   18  SER18      -0.1952
     18  CA        38.9580   10.4950   23.5540 C.3    18  SER18       0.1924
     19  C         40.4890   10.2910   23.5760 C.2    18  SER18       0.2314
     20  O         40.9690    9.1770   23.8460 O.2    18  SER18      -0.2863
     21  CB        38.4360   10.5710   22.1490 C.3    18  SER18       0.2116
     22  OG        38.8890    9.4580   21.4320 O.3    18  SER18      -0.2180
     23  N         41.7290    9.2420   27.0980 N.3    21  THR21      -0.1218
     24  CA        41.2790    7.8770   27.3070 C.3    21  THR21       0.1862
     25  C         42.2030    6.9200   26.5480 C.2    21  THR21       0.2287
     26  O         42.6110    5.8840   27.1110 O.2    21  THR21      -0.2866
     27  CB        39.8250    7.7290   26.8430 C.3    21  THR21       0.1770
     28  OG1       39.0380    8.8130   27.3970 O.3    21  THR21      -0.2211
     29  CG2       39.2450    6.3480   27.2120 C.3    21  THR21       0.0375
     30  N         39.5560   -1.3210   19.9280 N.3    90  PHE90      -0.1228
     31  CA        38.8480   -0.4630   20.8860 C.3    90  PHE90       0.1721
     32  C         38.4310    0.8030   20.1260 C.2    90  PHE90       0.2437
     33  O         39.3010    1.5530   19.6270 O.2    90  PHE90      -0.2733
     34  CB        39.7500    0.0150   22.0540 C.3    90  PHE90       0.0547
     35  CG        40.0020   -0.9930   23.0990 C.ar   90  PHE90      -0.0202
     36  CD1       39.2730   -0.9690   24.3040 C.ar   90  PHE90      -0.0042
     37  CD2       40.9690   -2.0000   22.9090 C.ar   90  PHE90      -0.0042
     38  CE1       39.4810   -1.9210   25.2830 C.ar   90  PHE90      -0.0003
     39  CE2       41.1790   -2.9560   23.8980 C.ar   90  PHE90      -0.0003
     40  CZ        40.4050   -2.9310   25.0690 C.ar   90  PHE90      -0.0000
     41  N         37.1120    1.0290   19.9950 N.am   91  PRO91      -0.2718
     42  CA        36.6160    2.2790   19.4870 C.3    91  PRO91       0.1535
     43  C         36.4160    3.2470   20.6320 C.2    91  PRO91       0.2598
     44  O         35.3210    3.3250   21.1710 O.2    91  PRO91      -0.2715
     45  CB        35.2960    1.8830   18.8110 C.3    91  PRO91       0.0310
     46  CG        34.8400    0.6190   19.5600 C.3    91  PRO91       0.0237
     47  CD        36.0370    0.0500   20.2450 C.3    91  PRO91       0.0939
     48  N         37.4860    3.9930   20.9850 N.am   92  LEU92      -0.1964
     49  CA        37.4400    4.9580   22.0630 C.3    92  LEU92       0.1728
     50  C         36.9450    6.3090   21.5980 C.2    92  LEU92       0.2616
     51  O         37.5410    7.3560   21.9080 O.2    92  LEU92      -0.2715
     52  CB        38.7780    5.0840   22.7640 C.3    92  LEU92       0.0311
     53  CG        39.3180    3.7730   23.3480 C.3    92  LEU92       0.0022
     54  CD1       40.6760    4.0820   24.0680 C.3    92  LEU92       0.0001
     55  CD2       38.3040    3.0700   24.2960 C.3    92  LEU92       0.0001
     56  N         35.8330    6.2870   20.8730 N.am   93  LEU93      -0.1963
     57  CA        35.2610    7.5000   20.3330 C.3    93  LEU93       0.1728
     58  C         33.8090    7.2740   19.9470 C.2    93  LEU93       0.2616
     59  O         33.4230    6.1720   19.6680 O.2    93  LEU93      -0.2715
     60  CB        36.0230    7.9690   19.0990 C.3    93  LEU93       0.0311
     61  CG        35.9420    7.1910   17.7670 C.3    93  LEU93       0.0022
     62  CD1       36.7870    7.9080   16.7710 C.3    93  LEU93       0.0001
     63  CD2       36.4420    5.7430   17.8930 C.3    93  LEU93       0.0001
     64  N         33.0310    8.3580   19.9270 N.am   94  HIS94      -0.1973
     65  CA        31.7700    8.3840   19.2450 C.3    94  HIS94       0.1656
     66  C         31.9320    8.4980   17.7180 C.2    94  HIS94       0.2291
     67  O         32.9780    8.8380   17.1880 O.2    94  HIS94      -0.2864
     68  CB        30.9570    9.5570   19.7540 C.3    94  HIS94       0.0771
     69  CG        30.5240    9.4140   21.1780 C.ar   94  HIS94       0.0820
     70  ND1       29.9140    8.2730   21.6580 N.ar   94  HIS94      -0.2267
     71  CD2       30.5760   10.2820   22.2170 C.ar   94  HIS94       0.1154
     72  CE1       29.6360    8.4310   22.9400 C.ar   94  HIS94       0.1986
     73  NE2       30.0190    9.6460   23.3030 N.ar   94  HIS94      -0.2212
     74  N         35.8370   -4.1740   20.5910 N.3   115  VAL115     -0.1231
     75  CA        35.4450   -4.0910   21.9710 C.3   115  VAL115      0.1692
     76  C         34.1210   -3.3770   22.1470 C.2   115  VAL115      0.2592
     77  O         33.8200   -2.4340   21.4520 O.2   115  VAL115     -0.2718
     78  CB        36.5170   -3.3640   22.8420 C.3   115  VAL115      0.0266
     79  CG1       36.0810   -3.3470   24.3110 C.3   115  VAL115      0.0020
     80  CG2       37.8620   -4.0640   22.6910 C.3   115  VAL115      0.0020
     81  N         33.3150   -3.8900   23.0600 N.am  116  GLY116     -0.1957
     82  CA        32.1660   -3.1660   23.5120 C.3   116  GLY116      0.1869
     83  C         30.9260   -3.5460   22.7210 C.2   116  GLY116      0.2309
     84  O         30.7920   -4.6350   22.1720 O.2   116  GLY116     -0.2863
     85  N         30.1950   -4.3070   27.7360 N.3   276  LEU276     -0.1245
     86  CA        30.0140   -3.5050   28.9160 C.3   276  LEU276      0.1561
     87  C         28.8640   -2.5690   28.8220 C.2   276  LEU276      0.2260
     88  O         28.4850   -2.1740   27.7190 O.2   276  LEU276     -0.2867
     89  CB        31.2510   -2.6480   29.1640 C.3   276  LEU276      0.0270
     90  CG        31.4420   -1.3740   28.3280 C.3   276  LEU276      0.0019
     91  CD1       32.5560   -0.6160   28.9620 C.3   276  LEU276      0.0001
     92  CD2       31.7190   -1.6050   26.7660 C.3   276  LEU276      0.0001
     93  N         29.2970    3.8260   26.1640 N.3   297  MET297     -0.1231
     94  CA        30.7060    4.2950   26.0910 C.3   297  MET297      0.1687
     95  C         31.1010    5.2560   27.2170 C.2   297  MET297      0.2434
     96  O         31.2740    6.4420   27.0300 O.2   297  MET297     -0.2733
     97  CB        30.9660    4.9050   24.7620 C.3   297  MET297      0.0400
     98  CG        30.1570    4.2380   23.6840 C.3   297  MET297      0.0596
     99  SD        31.2120    3.9880   22.3280 S.3   297  MET297     -0.1393
    100  CE        31.8070    2.3060   22.5850 C.3   297  MET297      0.0692
    101  N         31.1910    4.7240   28.4090 N.am  298  PRO298     -0.2718
    102  CA        31.4320    5.4400   29.5910 C.3   298  PRO298      0.1535
    103  C         32.8670    5.9410   29.6650 C.2   298  PRO298      0.2599
    104  O         33.7490    5.4760   28.9350 O.2   298  PRO298     -0.2715
    105  CB        31.1250    4.4050   30.6780 C.3   298  PRO298      0.0310
    106  CG        31.4970    3.0920   30.0980 C.3   298  PRO298      0.0237
    107  CD        30.9290    3.2960   28.6750 C.3   298  PRO298      0.0939
    108  N         33.0530    6.9420   30.5190 N.am  299  GLY299     -0.1941
    109  CA        34.3600    7.5070   30.7870 C.3   299  GLY299      0.2014
    110  C         35.1780    6.2910   31.1290 C.2   299  GLY299      0.2638
    111  O         34.6950    5.3790   31.8020 O.2   299  GLY299     -0.2714
    112  N         36.3760    6.2460   30.5980 N.am  300  PHE300     -0.1973
    113  CA        37.1700    5.0300   30.6570 C.3   300  PHE300      0.1639
    114  C         38.6410    5.2800   30.9850 C.2   300  PHE300      0.2290
    115  O         39.4970    4.4450   30.7960 O.2   300  PHE300     -0.2864
    116  CB        37.0310    4.2840   29.3510 C.3   300  PHE300      0.0560
    117  CG        37.1830    2.8500   29.5200 C.ar  300  PHE300     -0.0200
    118  CD1       36.1710    2.1280   30.1650 C.ar  300  PHE300     -0.0042
    119  CD2       38.3560    2.2140   29.1450 C.ar  300  PHE300     -0.0042
    120  CE1       36.3250    0.7500   30.3900 C.ar  300  PHE300     -0.0003
    121  CE2       38.5190    0.8340   29.3580 C.ar  300  PHE300     -0.0003
    122  CZ        37.5030    0.1120   29.9810 C.ar  300  PHE300     -0.0000
    123  N         38.0740   -7.0560   28.5480 N.3   324  LEU324     -0.1245
    124  CA        37.2790   -6.5370   27.4290 C.3   324  LEU324      0.1561
    125  C         37.7840   -7.0380   26.0410 C.2   324  LEU324      0.2260
    126  O         36.9740   -7.3580   25.1720 O.2   324  LEU324     -0.2867
    127  CB        37.2000   -5.0350   27.5220 C.3   324  LEU324      0.0270
    128  CG        36.2230   -4.3780   28.5610 C.3   324  LEU324      0.0019
    129  CD1       36.5810   -2.8670   28.7120 C.3   324  LEU324      0.0001
    130  CD2       34.8110   -4.4900   28.1130 C.3   324  LEU324      0.0001
@<TRIPOS>BOND
     1    62    61    1
     2    67    66    2
     3    66    65    1
     4    61    63    1
     5    61    60    1
     6    45    42    1
     7    45    46    1
     8    60    57    1
     9    65    68    1
    10    65    64    1
    11    42    41    1
    12    42    43    1
    13    46    47    1
    14    33    32    2
    15    59    58    2
    16    68    69    1
    17    64    58   am
    18    30    31    1
    19    58    57    1
    20    41    32   am
    21    41    47    1
    22    32    31    1
    23    57    56    1
    24    74    75    1
    25    43    48   am
    26    43    44    2
    27    56    50   am
    28    31    34    1
    29    48    49    1
    30    69    70   ar
    31    69    71   ar
    32     1     2    1
    33    22    21    1
    34    77    76    2
    35    50    51    2
    36    50    49    1
    37    70    72   ar
    38    75    76    1
    39    75    78    1
    40    34    35    1
    41    49    52    1
    42     3     2    1
    43     3     4    2
    44    76    81   am
    45    21    18    1
    46    84    83    2
    47    71    73   ar
    48    99   100    1
    49    99    98    1
    50     2     5    1
    51     5     6    1
    52     8     7   ar
    53    80    78    1
    54    83    82    1
    55    52    53    1
    56    78    79    1
    57    37    35   ar
    58    37    39   ar
    59    72    73   ar
    60    81    82    1
    61    35    36   ar
    62    53    54    1
    63    53    55    1
    64    18    19    1
    65    18    17    1
    66     7     6    1
    67     7     9   ar
    68    19    20    2
    69    98    97    1
    70    39    40   ar
    71    36    38   ar
    72    17    12   am
    73    97    94    1
    74    40    38   ar
    75   126   125    2
    76    10    11    1
    77    12    11    1
    78    12    13    2
    79   125   124    1
    80    94    93    1
    81    94    95    1
    82    11    14    1
    83    25    26    2
    84    25    24    1
    85    14    16    1
    86    14    15    1
    87    92    90    1
    88    27    29    1
    89    27    24    1
    90    27    28    1
    91    96    95    2
    92    23    24    1
    93    95   101   am
    94   124   127    1
    95   124   123    1
    96   127   128    1
    97    88    87    2
    98    85    86    1
    99   130   128    1
   100    90    91    1
   101    90    89    1
   102   101   107    1
   103   101   102    1
   104   128   129    1
   105   107   106    1
   106    87    86    1
   107    86    89    1
   108   104   103    2
   109   119   121   ar
   110   119   117   ar
   111   116   117    1
   112   116   113    1
   113   121   122   ar
   114   117   118   ar
   115   102   103    1
   116   102   105    1
   117   103   108   am
   118   122   120   ar
   119   106   105    1
   120   118   120   ar
   121   108   109    1
   122   112   113    1
   123   112   110   am
   124   113   114    1
   125   109   110    1
   126   115   114    2
   127   110   111    2
