@<TRIPOS>MOLECULE
tmp/2i89B00.pdb
 180 173 0 0 0
SMALL
GASTEIGER

@<TRIPOS>ATOM
      1  N          6.3830   -2.2560   27.6090 N.3    26  MET26      -0.1245
      2  CA         6.9860   -0.9890   27.9840 C.3    26  MET26       0.1570
      3  C          8.0410   -1.1890   29.0590 C.2    26  MET26       0.2261
      4  O          7.9140   -2.0840   29.9000 O.2    26  MET26      -0.2867
      5  CB         5.9030   -0.0790   28.5150 C.3    26  MET26       0.0387
      6  CG         6.1600    1.3550   28.2390 C.3    26  MET26       0.0595
      7  SD         4.6270    2.2280   28.5020 S.3    26  MET26      -0.1393
      8  CE         3.6120    1.6100   27.1910 C.3    26  MET26       0.0692
      9  N          9.8990    0.4420   32.2960 N.3    28  LEU28      -0.1245
     10  CA         9.9510    1.4250   33.3480 C.3    28  LEU28       0.1561
     11  C         11.1040    1.0290   34.2630 C.2    28  LEU28       0.2260
     12  O         11.1520   -0.0920   34.7640 O.2    28  LEU28      -0.2867
     13  CB         8.6480    1.4090   34.1180 C.3    28  LEU28       0.0270
     14  CG         7.4020    1.6430   33.2590 C.3    28  LEU28       0.0019
     15  CD1        6.1560    1.2580   34.0600 C.3    28  LEU28       0.0001
     16  CD2        7.3930    3.1520   32.7960 C.3    28  LEU28       0.0001
     17  N          7.1970   -4.2320   31.3430 N.3    33  TYR33      -0.1241
     18  CA         5.7850   -4.5430   31.5480 C.3    33  TYR33       0.1605
     19  C          4.9210   -4.8610   30.2880 C.2    33  TYR33       0.2264
     20  O          5.0360   -4.2260   29.2240 O.2    33  TYR33      -0.2867
     21  CB         5.1710   -3.4220   32.3690 C.3    33  TYR33       0.0534
     22  CG         5.9420   -3.1390   33.6530 C.ar   33  TYR33      -0.0201
     23  CD1        7.1930   -2.5280   33.6280 C.ar   33  TYR33      -0.0009
     24  CD2        5.4100   -3.4930   34.8960 C.ar   33  TYR33      -0.0009
     25  CE1        7.9030   -2.2650   34.8040 C.ar   33  TYR33       0.0417
     26  CE2        6.1070   -3.2390   36.0800 C.ar   33  TYR33       0.0417
     27  CZ         7.3430   -2.6260   36.0240 C.ar   33  TYR33       0.1957
     28  OH         7.9880   -2.3390   37.1990 O.3    33  TYR33      -0.2866
     29  N          1.5330   -4.3620   28.9810 N.3    35  LEU35      -0.1245
     30  CA         0.4140   -3.5280   29.4020 C.3    35  LEU35       0.1561
     31  C         -0.6440   -3.6710   28.3440 C.2    35  LEU35       0.2260
     32  O         -1.5680   -2.8540   28.2510 O.2    35  LEU35      -0.2867
     33  CB         0.8160   -2.0430   29.5100 C.3    35  LEU35       0.0270
     34  CG         1.9620   -1.7700   30.4640 C.3    35  LEU35       0.0019
     35  CD1        2.3270   -0.2460   30.4840 C.3    35  LEU35       0.0001
     36  CD2        1.5480   -2.2810   31.8320 C.3    35  LEU35       0.0001
     37  N         -3.8010   -3.8130   30.1450 N.3    38  PHE38      -0.1241
     38  CA        -3.9790   -2.5470   30.8570 C.3    38  PHE38       0.1605
     39  C         -4.4190   -1.3600   29.9670 C.2    38  PHE38       0.2264
     40  O         -4.9950   -0.3910   30.4680 O.2    38  PHE38      -0.2867
     41  CB        -2.6810   -2.1740   31.5840 C.3    38  PHE38       0.0534
     42  CG        -2.8220   -1.0150   32.5360 C.ar   38  PHE38      -0.0203
     43  CD1       -3.6750   -1.0920   33.6360 C.ar   38  PHE38      -0.0042
     44  CD2       -2.0940    0.1540   32.3400 C.ar   38  PHE38      -0.0042
     45  CE1       -3.7960   -0.0180   34.5250 C.ar   38  PHE38      -0.0003
     46  CE2       -2.2100    1.2230   33.2170 C.ar   38  PHE38      -0.0003
     47  CZ        -3.0630    1.1370   34.3090 C.ar   38  PHE38      -0.0000
     48  N         -6.1370    1.9750   31.8640 N.3    42  HIS42      -0.1227
     49  CA        -5.2870    3.0500   32.3800 C.3    42  HIS42       0.1737
     50  C         -6.0630    4.3570   32.5920 C.2    42  HIS42       0.2438
     51  O         -6.6210    4.9020   31.6610 O.2    42  HIS42      -0.2733
     52  CB        -4.1650    3.2890   31.3860 C.3    42  HIS42       0.0758
     53  CG        -3.2040    4.3450   31.8070 C.ar   42  HIS42       0.0818
     54  ND1       -2.7440    5.3120   30.9420 N.ar   42  HIS42      -0.2268
     55  CD2       -2.5560    4.5470   32.9780 C.ar   42  HIS42       0.1154
     56  CE1       -1.8520    6.0620   31.5600 C.ar   42  HIS42       0.1986
     57  NE2       -1.7170    5.6200   32.7980 N.ar   42  HIS42      -0.2212
     58  N         -6.0970    4.8840   33.8170 N.am   43  PRO43      -0.2718
     59  CA        -6.8260    6.1360   34.0770 C.3    43  PRO43       0.1535
     60  C         -6.2490    7.3620   33.3570 C.2    43  PRO43       0.2599
     61  O         -6.9230    8.3690   33.2180 O.2    43  PRO43      -0.2715
     62  CB        -6.7430    6.2860   35.6020 C.3    43  PRO43       0.0310
     63  CG        -6.5010    4.8240   36.0830 C.3    43  PRO43       0.0237
     64  CD        -5.5400    4.3100   35.0500 C.3    43  PRO43       0.0939
     65  N         -5.0080    7.2870   32.8920 N.am   44  GLY44      -0.1955
     66  CA        -4.5000    8.3590   32.0500 C.3    44  GLY44       0.1869
     67  C         -4.7220    8.0030   30.5910 C.2    44  GLY44       0.2309
     68  O         -4.2380    8.7000   29.7100 O.2    44  GLY44      -0.2863
     69  N         -1.5620    7.6310   25.7200 N.3    48  VAL48      -0.1231
     70  CA        -0.1940    7.9450   26.1750 C.3    48  VAL48       0.1692
     71  C          0.6350    6.6800   26.2130 C.2    48  VAL48       0.2591
     72  O          1.8520    6.7410   26.0470 O.2    48  VAL48      -0.2718
     73  CB        -0.0720    8.5470   27.6000 C.3    48  VAL48       0.0266
     74  CG1       -0.1320   10.0440   27.5390 C.3    48  VAL48       0.0020
     75  CG2       -1.1120    7.9240   28.5470 C.3    48  VAL48       0.0020
     76  N         -0.0170    5.5410   26.4470 N.am   49  LEU49      -0.1980
     77  CA         0.6610    4.2520   26.3910 C.3    49  LEU49       0.1596
     78  C          0.9250    3.8220   24.9410 C.2    49  LEU49       0.2287
     79  O          2.0360    3.4090   24.6080 O.2    49  LEU49      -0.2864
     80  CB        -0.1650    3.1760   27.1260 C.3    49  LEU49       0.0297
     81  CG        -0.6460    3.4960   28.5660 C.3    49  LEU49       0.0022
     82  CD1       -1.3860    2.2830   29.1960 C.3    49  LEU49       0.0001
     83  CD2        0.5970    3.8610   29.4270 C.3    49  LEU49       0.0001
     84  N          4.0800    5.3800   23.2690 N.3    52  GLN52      -0.1245
     85  CA         5.3530    4.8040   23.6600 C.3    52  GLN52       0.1566
     86  C          5.3450    3.2830   23.8700 C.2    52  GLN52       0.2260
     87  O          6.1140    2.7540   24.6600 O.2    52  GLN52      -0.2867
     88  CB         5.8160    5.4880   24.9080 C.3    52  GLN52       0.0367
     89  CG         6.2140    6.8980   24.5860 C.3    52  GLN52       0.0905
     90  CD         6.6370    7.6170   25.8060 C.2    52  GLN52       0.2608
     91  OE1        7.7450    7.4050   26.3040 O.2    52  GLN52      -0.2717
     92  NE2        5.7540    8.4820   26.3180 N.am   52  GLN52      -0.0878
     93  N          9.4380    4.2670   28.8200 N.3    57  ALA57      -0.1245
     94  CA         8.6640    5.4700   29.1370 C.3    57  ALA57       0.1562
     95  C          8.8960    5.8370   30.6070 C.2    57  ALA57       0.2260
     96  O          8.0450    6.4740   31.2300 O.2    57  ALA57      -0.2867
     97  CB         7.1870    5.2220   28.8850 C.3    57  ALA57       0.0290
     98  N          8.5780    9.8400   31.0670 N.3    60  SER60      -0.1202
     99  CA         7.1880   10.2250   30.9450 C.3    60  SER60       0.2020
    100  C          6.4600    9.8030   32.1960 C.2    60  SER60       0.2618
    101  O          5.8310   10.6290   32.8620 O.2    60  SER60      -0.2717
    102  CB         6.5850    9.5800   29.7080 C.3    60  SER60       0.2103
    103  OG         7.0900   10.2560   28.5730 O.3    60  SER60      -0.2182
    104  N          6.5940    8.5250   32.5350 N.am   61  PHE61      -0.1975
    105  CA         5.9040    7.9490   33.6800 C.3    61  PHE61       0.1639
    106  C          6.1450    8.7630   34.9390 C.2    61  PHE61       0.2290
    107  O          5.2070    9.0270   35.6980 O.2    61  PHE61      -0.2864
    108  CB         6.3520    6.4910   33.8750 C.3    61  PHE61       0.0560
    109  CG         5.7990    5.8510   35.1160 C.ar   61  PHE61      -0.0200
    110  CD1        4.5610    5.2140   35.0950 C.ar   61  PHE61      -0.0042
    111  CD2        6.5270    5.8740   36.3080 C.ar   61  PHE61      -0.0042
    112  CE1        4.0470    4.5930   36.2440 C.ar   61  PHE61      -0.0003
    113  CE2        6.0380    5.2620   37.4660 C.ar   61  PHE61      -0.0003
    114  CZ         4.7980    4.6160   37.4420 C.ar   61  PHE61      -0.0000
    115  N          4.8400   12.5020   35.1090 N.3    64  VAL64      -0.1231
    116  CA         3.4180   12.6110   35.3530 C.3    64  VAL64       0.1692
    117  C          3.1710   12.7140   36.8440 C.2    64  VAL64       0.2593
    118  O          2.1340   13.2090   37.2790 O.2    64  VAL64      -0.2718
    119  CB         2.6790   11.3900   34.7880 C.3    64  VAL64       0.0266
    120  CG1        1.2200   11.4660   35.1400 C.3    64  VAL64       0.0020
    121  CG2        2.8880   11.3210   33.2520 C.3    64  VAL64       0.0020
    122  N          4.1250   12.2440   37.6400 N.am   65  GLY65      -0.1942
    123  CA         3.8900   12.1480   39.0740 C.3    65  GLY65       0.2014
    124  C          2.9340   11.0380   39.5320 C.2    65  GLY65       0.2639
    125  O          2.0720   11.2740   40.4050 O.2    65  GLY65      -0.2714
    126  N          3.0880    9.8210   38.9980 N.am   66  HIS66      -0.1959
    127  CA         2.3340    8.6710   39.5040 C.3    66  HIS66       0.1787
    128  C          2.2910    8.3780   41.0020 C.2    66  HIS66       0.2620
    129  O          3.3170    8.3340   41.6850 O.2    66  HIS66      -0.2715
    130  CB         2.7810    7.4110   38.7940 C.3    66  HIS66       0.0785
    131  CG         2.2400    7.3080   37.4080 C.ar   66  HIS66       0.0821
    132  ND1        2.7670    8.0240   36.3590 N.ar   66  HIS66      -0.2267
    133  CD2        1.1800    6.6300   36.9100 C.ar   66  HIS66       0.1154
    134  CE1        2.0550    7.7920   35.2750 C.ar   66  HIS66       0.1986
    135  NE2        1.0880    6.9510   35.5810 N.ar   66  HIS66      -0.2212
    136  N          1.0830    8.1440   41.5000 N.am   67  SER67      -0.1950
    137  CA         0.8790    7.8850   42.9140 C.3    67  SER67       0.1924
    138  C          1.3020    6.4700   43.3270 C.2    67  SER67       0.2314
    139  O          1.4690    5.5650   42.4960 O.2    67  SER67      -0.2863
    140  CB        -0.5910    8.0430   43.2800 C.3    67  SER67       0.2116
    141  OG        -1.3270    6.9170   42.8100 O.3    67  SER67      -0.2180
    142  N         -0.4310    4.1530   44.7140 N.3    69  ASP69      -0.1225
    143  CA        -1.3970    3.1520   44.2450 C.3    69  ASP69       0.1805
    144  C         -1.1730    2.7380   42.7900 C.2    69  ASP69       0.2597
    145  O         -1.5020    1.6240   42.3910 O.2    69  ASP69      -0.2718
    146  CB        -2.7990    3.7020   44.3760 C.3    69  ASP69       0.1424
    147  CG        -2.9740    4.5030   45.6350 C.2    69  ASP69       0.3668
    148  OD1       -2.8530    3.9070   46.7390 O.co2  69  ASP69      -0.2456
    149  OD2       -3.2110    5.7360   45.5240 O.co2  69  ASP69      -0.2456
    150  N         -0.6340    3.6640   42.0030 N.am   70  ALA70      -0.1979
    151  CA        -0.3020    3.4060   40.6020 C.3    70  ALA70       0.1597
    152  C          0.9010    2.4640   40.5000 C.2    70  ALA70       0.2287
    153  O          0.8900    1.4860   39.7410 O.2    70  ALA70      -0.2864
    154  CB         0.0180    4.7350   39.8850 C.3    70  ALA70       0.0319
    155  N         -0.1180   -0.8440   41.4450 N.3    73  MET73      -0.1230
    156  CA        -0.8470   -1.3830   40.3030 C.3    73  MET73       0.1702
    157  C          0.0660   -1.9230   39.1690 C.2    73  MET73       0.2593
    158  O         -0.2500   -2.9300   38.5240 O.2    73  MET73      -0.2718
    159  CB        -1.7810   -0.2950   39.7550 C.3    73  MET73       0.0401
    160  CG        -2.9340   -0.7710   38.8840 C.3    73  MET73       0.0596
    161  SD        -3.7990    0.6790   38.2350 S.3    73  MET73      -0.1393
    162  CE        -5.3300    0.6410   39.1300 C.3    73  MET73       0.0692
    163  N          1.1900   -1.2780   38.9010 N.am   74  SER74      -0.1952
    164  CA         1.9820   -1.7340   37.7620 C.3    74  SER74       0.1924
    165  C          2.6330   -3.0910   38.0050 C.2    74  SER74       0.2314
    166  O          3.0520   -3.7610   37.0560 O.2    74  SER74      -0.2863
    167  CB         3.0520   -0.7260   37.4180 C.3    74  SER74       0.2116
    168  OG         3.9260   -0.5580   38.5030 O.3    74  SER74      -0.2180
    169  N          1.9220   -6.4300   35.9580 N.3    77  TYR77      -0.1241
    170  CA         2.1860   -6.5680   34.5090 C.3    77  TYR77       0.1605
    171  C          3.6910   -6.8030   34.2890 C.2    77  TYR77       0.2264
    172  O          4.1750   -6.9040   33.1610 O.2    77  TYR77      -0.2867
    173  CB         1.7340   -5.3090   33.7760 C.3    77  TYR77       0.0534
    174  CG         0.2900   -4.9740   34.0320 C.ar   77  TYR77      -0.0201
    175  CD1       -0.7270   -5.5870   33.3290 C.ar   77  TYR77      -0.0009
    176  CD2       -0.0510   -4.0640   35.0030 C.ar   77  TYR77      -0.0009
    177  CE1       -2.0690   -5.3040   33.5900 C.ar   77  TYR77       0.0417
    178  CE2       -1.3750   -3.7650   35.2850 C.ar   77  TYR77       0.0417
    179  CZ        -2.3830   -4.3880   34.5850 C.ar   77  TYR77       0.1957
    180  OH        -3.6870   -4.1170   34.9330 O.3    77  TYR77      -0.2866
@<TRIPOS>BOND
     1    84    85    1
     2    85    86    1
     3    85    88    1
     4    86    87    2
     5    89    88    1
     6    89    90    1
     7    79    78    2
     8    78    77    1
     9    69    70    1
    10    90    91    2
    11    90    92   am
    12    72    71    2
    13    70    71    1
    14    70    73    1
    15    71    76   am
    16    77    76    1
    17    77    80    1
    18    80    81    1
    19     8     7    1
    20    74    73    1
    21    73    75    1
    22     1     2    1
    23     2     5    1
    24     2     3    1
    25     6     7    1
    26     6     5    1
    27    32    31    2
    28    31    30    1
    29    81    82    1
    30    81    83    1
    31   103   102    1
    32    93    94    1
    33    97    94    1
    34    29    30    1
    35     3     4    2
    36    94    95    1
    37    20    19    2
    38    30    33    1
    39    33    34    1
    40   102    99    1
    41    68    67    2
    42    39    40    2
    43    39    38    1
    44    37    38    1
    45    19    18    1
    46    34    35    1
    47    34    36    1
    48    67    66    1
    49    95    96    2
    50    38    41    1
    51    54    56   ar
    52    54    53   ar
    53    99    98    1
    54    99   100    1
    55    17    18    1
    56    52    53    1
    57    52    49    1
    58    18    21    1
    59    56    57   ar
    60    41    42    1
    61    51    50    2
    62    53    55   ar
    63    48    49    1
    64    66    65    1
    65   100   104   am
    66   100   101    2
    67     9    10    1
    68    44    42   ar
    69    44    46   ar
    70    21    22    1
    71    49    50    1
    72   104   105    1
    73    42    43   ar
    74    50    58   am
    75    16    14    1
    76    57    55   ar
    77    65    60   am
    78   172   171    2
    79    46    47   ar
    80    61    60    2
    81   121   119    1
    82    14    15    1
    83    14    13    1
    84   175   177   ar
    85   175   174   ar
    86    10    13    1
    87    10    11    1
    88    60    59    1
    89   177   179   ar
    90    23    22   ar
    91    23    25   ar
    92    43    45   ar
    93    22    24   ar
    94   105   108    1
    95   105   106    1
    96   173   174    1
    97   173   170    1
    98    58    59    1
    99    58    64    1
   100   108   109    1
   101   174   176   ar
   102    59    62    1
   103    11    12    2
   104   171   170    1
   105    47    45   ar
   106   170   169    1
   107   179   180    1
   108   179   178   ar
   109   119   120    1
   110   119   116    1
   111    25    27   ar
   112    24    26   ar
   113   106   107    2
   114   176   178   ar
   115    64    63    1
   116   110   109   ar
   117   110   112   ar
   118   115   116    1
   119   109   111   ar
   120   134   135   ar
   121   134   132   ar
   122   116   117    1
   123   135   133   ar
   124    62    63    1
   125    27    26   ar
   126    27    28    1
   127   112   114   ar
   128   111   113   ar
   129   132   131   ar
   130   117   118    2
   131   117   122   am
   132   133   131   ar
   133   166   165    2
   134   131   130    1
   135   167   164    1
   136   167   168    1
   137   114   113   ar
   138   122   123    1
   139   164   165    1
   140   164   163    1
   141   161   160    1
   142   161   162    1
   143   158   157    2
   144   130   127    1
   145   160   159    1
   146   163   157   am
   147   126   127    1
   148   126   124   am
   149   123   124    1
   150   157   156    1
   151   127   128    1
   152   124   125    2
   153   153   152    2
   154   159   156    1
   155   154   151    1
   156   156   155    1
   157   152   151    1
   158   151   150    1
   159   128   136   am
   160   128   129    2
   161   136   137    1
   162   150   144   am
   163   145   144    2
   164   139   138    2
   165   144   143    1
   166   141   140    1
   167   137   140    1
   168   137   138    1
   169   143   146    1
   170   143   142    1
   171   146   147    1
   172   149   147   ar
   173   147   148   ar
