@<TRIPOS>MOLECULE
tmp/2i8cB00.pdb
 148 138 0 0 0
SMALL
GASTEIGER

@<TRIPOS>ATOM
      1  N         17.4350    8.2020   23.5750 N.3   128  LYS128     -0.1245
      2  CA        16.8460    8.1790   24.9030 C.3   128  LYS128      0.1561
      3  C         15.4310    7.7050   24.8500 C.2   128  LYS128      0.2260
      4  O         15.0030    7.0200   25.7580 O.2   128  LYS128     -0.2867
      5  CB        16.9410    9.5180   25.6130 C.3   128  LYS128      0.0271
      6  CG        18.4080   10.1170   25.8060 C.3   128  LYS128      0.0035
      7  CD        19.5940    9.0490   25.9780 C.3   128  LYS128      0.0206
      8  CE        20.6070    9.0250   24.7760 C.3   128  LYS128      0.1093
      9  NZ        21.9370    9.7530   24.9290 N.3   128  LYS128     -0.1314
     10  N         11.2540    7.6860   36.0010 N.3   143  LEU143     -0.1245
     11  CA        10.5720    8.9330   36.2090 C.3   143  LEU143      0.1561
     12  C          9.4770    9.1330   35.1520 C.2   143  LEU143      0.2260
     13  O          9.6760    8.8040   34.0080 O.2   143  LEU143     -0.2867
     14  CB        11.6200   10.0500   36.0990 C.3   143  LEU143      0.0270
     15  CG        12.6340   10.0820   37.2490 C.3   143  LEU143      0.0019
     16  CD1       13.8660   11.0060   37.0380 C.3   143  LEU143      0.0001
     17  CD2       11.8330   10.5540   38.4720 C.3   143  LEU143      0.0001
     18  N         12.6260   18.3540   32.7720 N.3   173  PHE173     -0.1241
     19  CA        13.7790   18.4690   31.9060 C.3   173  PHE173      0.1605
     20  C         13.4110   18.2280   30.4500 C.2   173  PHE173      0.2264
     21  O         12.7420   17.2630   30.1460 O.2   173  PHE173     -0.2867
     22  CB        14.8680   17.5220   32.3770 C.3   173  PHE173      0.0534
     23  CG        15.6330   18.0390   33.5580 C.ar  173  PHE173     -0.0203
     24  CD1       15.1690   17.8310   34.8310 C.ar  173  PHE173     -0.0042
     25  CD2       16.8100   18.7470   33.3760 C.ar  173  PHE173     -0.0042
     26  CE1       15.8650   18.2930   35.9200 C.ar  173  PHE173     -0.0003
     27  CE2       17.5180   19.2270   34.4570 C.ar  173  PHE173     -0.0003
     28  CZ        17.0370   19.0010   35.7400 C.ar  173  PHE173     -0.0000
     29  N         14.9510   17.1580   26.9370 N.3   175  LYS175     -0.1245
     30  CA        16.1440   16.4540   26.4360 C.3   175  LYS175      0.1561
     31  C         16.0120   16.0860   24.9470 C.2   175  LYS175      0.2260
     32  O         15.0270   15.4610   24.5510 O.2   175  LYS175     -0.2867
     33  CB        16.3710   15.1660   27.2590 C.3   175  LYS175      0.0271
     34  CG        16.3690   15.3440   28.7950 C.3   175  LYS175      0.0035
     35  CD        16.4860   14.0170   29.5930 C.3   175  LYS175      0.0206
     36  CE        17.0820   14.2300   31.0110 C.3   175  LYS175      0.1093
     37  NZ        17.0800   12.9880   31.8590 N.3   175  LYS175     -0.1314
     38  N         24.2080   13.3080   22.3090 N.3   180  GLY180     -0.1210
     39  CA        24.8480   12.6360   23.4270 C.3   180  GLY180      0.1956
     40  C         24.7730   13.4990   24.6730 C.2   180  GLY180      0.2613
     41  O         23.8340   14.2910   24.8100 O.2   180  GLY180     -0.2717
     42  N         25.7700   13.3540   25.5670 N.am  181  SER181     -0.1938
     43  CA        25.9110   14.1830   26.7980 C.3   181  SER181      0.2055
     44  C         26.1800   15.6640   26.4710 C.2   181  SER181      0.2643
     45  O         27.2670   16.1960   26.7650 O.2   181  SER181     -0.2714
     46  CB        27.0220   13.6220   27.7160 C.3   181  SER181      0.2130
     47  OG        27.2360   14.4550   28.8510 O.3   181  SER181     -0.2179
     48  N         25.1430   16.3100   25.9150 N.am  182  SER182     -0.1949
     49  CA        25.2680   17.5380   25.1020 C.3   182  SER182      0.1924
     50  C         24.2100   18.6010   25.4620 C.2   182  SER182      0.2314
     51  O         23.4360   18.4300   26.4070 O.2   182  SER182     -0.2863
     52  CB        25.2090   17.1860   23.5780 C.3   182  SER182      0.2116
     53  OG        26.5090   16.8880   23.0430 O.3   182  SER182     -0.2180
     54  N         19.6310   20.4550   26.1530 N.3   185  ILE185     -0.1245
     55  CA        18.9750   20.0980   27.4270 C.3   185  ILE185      0.1561
     56  C         18.5880   21.3380   28.2490 C.2   185  ILE185      0.2260
     57  O         19.1120   22.4290   28.0270 O.2   185  ILE185     -0.2867
     58  CB        19.8920   19.1880   28.2820 C.3   185  ILE185      0.0252
     59  CG1       20.2370   17.9340   27.5020 C.3   185  ILE185      0.0019
     60  CG2       19.2420   18.7970   29.6280 C.3   185  ILE185      0.0019
     61  CD1       20.2720   16.7220   28.3570 C.3   185  ILE185      0.0001
     62  N         16.4070   22.4770   32.3360 N.3   187  LYS187     -0.1245
     63  CA        15.2730   22.4380   33.2690 C.3   187  LYS187      0.1561
     64  C         14.3830   23.5880   32.8900 C.2   187  LYS187      0.2260
     65  O         14.8580   24.6020   32.4100 O.2   187  LYS187     -0.2867
     66  CB        15.5790   22.4030   34.7890 C.3   187  LYS187      0.0271
     67  CG        16.7830   23.1280   35.2990 C.3   187  LYS187      0.0035
     68  CD        16.5930   23.7140   36.7490 C.3   187  LYS187      0.0206
     69  CE        15.8550   22.8120   37.7380 C.3   187  LYS187      0.1093
     70  NZ        16.5920   21.5490   38.0480 N.3   187  LYS187     -0.1314
     71  N         11.1400   15.1340   30.7900 N.3   211  GLU211     -0.1231
     72  CA        11.0320   14.3150   31.9800 C.3   211  GLU211      0.1699
     73  C         10.9340   15.0620   33.2980 C.2   211  GLU211      0.2592
     74  O         11.4750   16.1510   33.4610 O.2   211  GLU211     -0.2718
     75  CB        12.0280   13.1290   31.9750 C.3   211  GLU211      0.0402
     76  CG        13.4990   13.4190   32.0940 C.3   211  GLU211      0.1161
     77  CD        14.3710   12.1070   32.0800 C.2   211  GLU211      0.3649
     78  OE1       14.3450   11.3750   31.0400 O.co2 211  GLU211     -0.2457
     79  OE2       15.0840   11.8230   33.1010 O.co2 211  GLU211     -0.2457
     80  N         10.1600   14.4800   34.2120 N.am  212  GLN212     -0.1979
     81  CA         9.9780   15.0220   35.5370 C.3   212  GLN212      0.1601
     82  C         11.3290   15.1540   36.2020 C.2   212  GLN212      0.2287
     83  O         12.0910   14.1860   36.2520 O.2   212  GLN212     -0.2864
     84  CB         9.0690   14.1190   36.3380 C.3   212  GLN212      0.0394
     85  CG         8.5960   14.6960   37.6450 C.3   212  GLN212      0.0908
     86  CD         7.2050   14.1810   38.0020 C.2   212  GLN212      0.2608
     87  OE1        6.2380   14.3750   37.2450 O.2   212  GLN212     -0.2717
     88  NE2        7.0990   13.5080   39.1390 N.am  212  GLN212     -0.0878
     89  N         13.7450   15.3650   39.2790 N.3   214  VAL214     -0.1245
     90  CA        13.8110   14.8340   40.6560 C.3   214  VAL214      0.1561
     91  C         14.9410   15.4450   41.4800 C.2   214  VAL214      0.2260
     92  O         15.8950   16.0060   40.9480 O.2   214  VAL214     -0.2867
     93  CB        14.0350   13.2700   40.7490 C.3   214  VAL214      0.0252
     94  CG1       12.7700   12.5340   40.4670 C.3   214  VAL214      0.0019
     95  CG2       15.2060   12.7820   39.8550 C.3   214  VAL214      0.0019
     96  N         23.2300   10.7340   42.3740 N.3   218  GLU218     -0.1245
     97  CA        23.6830   10.1890   41.1020 C.3   218  GLU218      0.1567
     98  C         24.5340    8.9990   41.4430 C.2   218  GLU218      0.2260
     99  O         25.6090    9.1350   42.0060 O.2   218  GLU218     -0.2867
    100  CB        24.5600   11.1680   40.3280 C.3   218  GLU218      0.0388
    101  CG        23.8400   12.2510   39.4580 C.3   218  GLU218      0.1160
    102  CD        24.7960   13.4340   39.0270 C.2   218  GLU218      0.3649
    103  OE1       26.0330   13.2020   38.7870 O.co2 218  GLU218     -0.2457
    104  OE2       24.3060   14.5880   38.9240 O.co2 218  GLU218     -0.2457
    105  N         24.1780   19.7180   41.2310 N.3   242  ALA242     -0.1231
    106  CA        24.1260   19.2600   39.8090 C.3   242  ALA242      0.1694
    107  C         23.5570   20.4040   38.9630 C.2   242  ALA242      0.2592
    108  O         22.7050   21.1600   39.4430 O.2   242  ALA242     -0.2718
    109  CB        23.3030   18.0140   39.6450 C.3   242  ALA242      0.0304
    110  N         24.0410   20.5670   37.7290 N.am  243  PHE243     -0.1976
    111  CA        23.6560   21.7380   36.9160 C.3   243  PHE243      0.1639
    112  C         23.8200   21.5790   35.3880 C.2   243  PHE243      0.2290
    113  O         24.5980   20.7330   34.9120 O.2   243  PHE243     -0.2864
    114  CB        24.4170   22.9770   37.4010 C.3   243  PHE243      0.0560
    115  CG        25.9310   22.8760   37.2780 C.ar  243  PHE243     -0.0200
    116  CD1       26.5580   22.1300   36.2550 C.ar  243  PHE243     -0.0042
    117  CD2       26.7370   23.5840   38.1640 C.ar  243  PHE243     -0.0042
    118  CE1       27.9490   22.0640   36.1490 C.ar  243  PHE243     -0.0003
    119  CE2       28.1310   23.5320   38.0640 C.ar  243  PHE243     -0.0003
    120  CZ        28.7370   22.7680   37.0560 C.ar  243  PHE243     -0.0000
    121  N         19.1300    7.3040   39.6710 N.3   282  PHE282     -0.1241
    122  CA        18.7550    8.3900   40.5440 C.3   282  PHE282      0.1605
    123  C         18.2420    7.6890   41.7550 C.2   282  PHE282      0.2264
    124  O         17.3710    6.8340   41.6330 O.2   282  PHE282     -0.2867
    125  CB        17.5980    9.2180   39.9760 C.3   282  PHE282      0.0534
    126  CG        17.9810   10.1870   38.8800 C.ar  282  PHE282     -0.0203
    127  CD1       17.1770   10.3200   37.7570 C.ar  282  PHE282     -0.0042
    128  CD2       19.1250   10.9570   38.9610 C.ar  282  PHE282     -0.0042
    129  CE1       17.5060   11.2080   36.7410 C.ar  282  PHE282     -0.0003
    130  CE2       19.4410   11.8470   37.9530 C.ar  282  PHE282     -0.0003
    131  CZ        18.6210   11.9870   36.8450 C.ar  282  PHE282     -0.0000
    132  N         18.2610    6.1950   34.9830 N.3   292  ASN292     -0.1225
    133  CA        18.3030    7.3370   34.1010 C.3   292  ASN292      0.1785
    134  C         18.7110    6.9110   32.7300 C.2   292  ASN292      0.2597
    135  O         18.0610    7.2150   31.7720 O.2   292  ASN292     -0.2718
    136  CB        19.2760    8.3810   34.6160 C.3   292  ASN292      0.1169
    137  CG        19.2740    9.6330   33.7680 C.2   292  ASN292      0.2627
    138  OD1       18.2330   10.0390   33.2250 O.2   292  ASN292     -0.2716
    139  ND2       20.4440   10.2670   33.6600 N.am  292  ASN292     -0.0877
    140  N         19.7900    6.1690   32.6450 N.am  293  GLU293     -0.1979
    141  CA        20.3400    5.8490   31.3380 C.3   293  GLU293      0.1602
    142  C         21.3470    4.7410   31.4560 C.2   293  GLU293      0.2287
    143  O         21.8580    4.4720   32.5450 O.2   293  GLU293     -0.2864
    144  CB        20.9770    7.1260   30.6780 C.3   293  GLU293      0.0415
    145  CG        22.3430    7.5590   31.2400 C.3   293  GLU293      0.1163
    146  CD        22.7660    8.9630   30.7810 C.2   293  GLU293      0.3649
    147  OE1       22.5720    9.2770   29.5770 O.co2 293  GLU293     -0.2457
    148  OE2       23.2980    9.7590   31.6170 O.co2 293  GLU293     -0.2457
@<TRIPOS>BOND
     1    38    39    1
     2    53    52    1
     3    39    40    1
     4     1     2    1
     5    52    49    1
     6    32    31    2
     7    40    41    2
     8    40    42   am
     9     8     9    1
    10     8     7    1
    11     3     2    1
    12     3     4    2
    13     2     5    1
    14    31    30    1
    15    49    50    1
    16    49    48    1
    17    50    51    2
    18    42    43    1
    19     5     6    1
    20     6     7    1
    21    48    44   am
    22    54    55    1
    23    30    29    1
    24    30    33    1
    25    44    45    2
    26    44    43    1
    27    43    46    1
    28    33    34    1
    29    55    56    1
    30    55    58    1
    31    59    58    1
    32    59    61    1
    33    46    47    1
    34    57    56    2
    35    58    60    1
    36    34    35    1
    37   147   146   ar
    38    35    36    1
    39    21    20    2
    40    20    19    1
    41   144   145    1
    42   144   141    1
    43   146   145    1
    44   146   148   ar
    45    71    72    1
    46    36    37    1
    47    78    77   ar
    48   141   142    1
    49   141   140    1
    50   142   143    2
    51   135   134    2
    52    19    22    1
    53    19    18    1
    54    75    72    1
    55    75    76    1
    56    72    73    1
    57    77    76    1
    58    77    79   ar
    59    62    63    1
    60    22    23    1
    61    65    64    2
    62   140   134   am
    63   134   133    1
    64    64    63    1
    65   138   137    2
    66    63    66    1
    67    73    74    2
    68    73    80   am
    69    25    23   ar
    70    25    27   ar
    71    23    24   ar
    72   139   137   am
    73   137   136    1
    74    13    12    2
    75   133   136    1
    76   133   132    1
    77    80    81    1
    78    27    28   ar
    79    66    67    1
    80    24    26   ar
    81   113   112    2
    82    12    11    1
    83    67    68    1
    84   112   111    1
    85    81    82    1
    86    81    84    1
    87    28    26   ar
    88    10    11    1
    89    14    11    1
    90    14    15    1
    91   118   116   ar
    92   118   120   ar
    93    82    83    2
    94   116   115   ar
    95    84    85    1
    96   129   131   ar
    97   129   127   ar
    98    68    69    1
    99   131   130   ar
   100   111   114    1
   101   111   110    1
   102    16    15    1
   103   120   119   ar
   104    87    86    2
   105    15    17    1
   106   115   114    1
   107   115   117   ar
   108    85    86    1
   109   110   107   am
   110    69    70    1
   111   127   126   ar
   112   130   128   ar
   113    86    88   am
   114   119   117   ar
   115   103   102   ar
   116   126   128   ar
   117   126   125    1
   118   104   102   ar
   119   107   108    2
   120   107   106    1
   121   102   101    1
   122    89    90    1
   123   101   100    1
   124   109   106    1
   125   121   122    1
   126   106   105    1
   127    95    93    1
   128   125   122    1
   129   100    97    1
   130    94    93    1
   131   122   123    1
   132    90    93    1
   133    90    91    1
   134    92    91    2
   135    97    98    1
   136    97    96    1
   137    98    99    2
   138   124   123    2
