@<TRIPOS>MOLECULE
tmp/2i8tA00.pdb
 230 220 0 0 0
SMALL
GASTEIGER

@<TRIPOS>ATOM
      1  N         55.3090   62.9510   24.0160 N.3     3  PHE3       -0.1227
      2  CA        53.9990   62.5660   23.5040 C.3     3  PHE3        0.1736
      3  C         53.8240   61.1330   23.9960 C.2     3  PHE3        0.2595
      4  O         54.5180   60.2160   23.5580 O.2     3  PHE3       -0.2718
      5  CB        53.8920   62.6520   21.9820 C.3     3  PHE3        0.0547
      6  CG        52.5110   62.3500   21.4790 C.ar    3  PHE3       -0.0202
      7  CD1       51.5300   63.3250   21.4940 C.ar    3  PHE3       -0.0042
      8  CD2       52.1870   61.0890   21.0090 C.ar    3  PHE3       -0.0042
      9  CE1       50.2530   63.0550   21.0400 C.ar    3  PHE3       -0.0003
     10  CE2       50.9150   60.8130   20.5510 C.ar    3  PHE3       -0.0003
     11  CZ        49.9460   61.7950   20.5660 C.ar    3  PHE3       -0.0000
     12  N         52.8880   60.9580   24.9210 N.am    4  LEU4       -0.1980
     13  CA        52.6880   59.6870   25.6010 C.3     4  LEU4        0.1596
     14  C         51.9020   58.6510   24.8140 C.2     4  LEU4        0.2287
     15  O         51.0380   58.9740   23.9990 O.2     4  LEU4       -0.2864
     16  CB        51.8870   59.9420   26.8800 C.3     4  LEU4        0.0297
     17  CG        52.4830   60.9170   27.8950 C.3     4  LEU4        0.0022
     18  CD1       51.4770   61.2080   29.0010 C.3     4  LEU4        0.0001
     19  CD2       53.7900   60.3690   28.4490 C.3     4  LEU4        0.0001
     20  N         48.9890   56.0450   24.4190 N.3     6  GLN6       -0.1245
     21  CA        47.6040   56.2150   24.8380 C.3     6  GLN6        0.1566
     22  C         47.3500   55.6790   26.2440 C.2     6  GLN6        0.2260
     23  O         46.6250   56.2950   27.0250 O.2     6  GLN6       -0.2867
     24  CB        46.6380   55.5710   23.8410 C.3     6  GLN6        0.0367
     25  CG        45.1890   55.8850   24.1780 C.3     6  GLN6        0.0905
     26  CD        44.1930   55.6170   23.0660 C.2     6  GLN6        0.2608
     27  OE1       44.5230   55.6450   21.8810 O.2     6  GLN6       -0.2717
     28  NE2       42.9470   55.3690   23.4550 N.am    6  GLN6       -0.0878
     29  N         48.7190   58.2430   28.6510 N.3     9  PHE9       -0.1241
     30  CA        47.9180   59.4610   28.6120 C.3     9  PHE9        0.1605
     31  C         46.6000   59.2390   29.3500 C.2     9  PHE9        0.2264
     32  O         46.1460   60.1210   30.0780 O.2     9  PHE9       -0.2867
     33  CB        47.7020   59.9260   27.1690 C.3     9  PHE9        0.0534
     34  CG        47.0490   61.2770   27.0450 C.ar    9  PHE9       -0.0203
     35  CD1       47.5080   62.3620   27.7750 C.ar    9  PHE9       -0.0042
     36  CD2       45.9880   61.4670   26.1740 C.ar    9  PHE9       -0.0042
     37  CE1       46.9090   63.6040   27.6560 C.ar    9  PHE9       -0.0003
     38  CE2       45.3890   62.7070   26.0490 C.ar    9  PHE9       -0.0003
     39  CZ        45.8510   63.7740   26.7880 C.ar    9  PHE9       -0.0000
     40  N         47.7640   73.4240   30.0410 N.3    20  SER20      -0.1217
     41  CA        47.6600   73.8130   28.6430 C.3    20  SER20       0.1889
     42  C         47.8980   75.2990   28.4260 C.2    20  SER20       0.2288
     43  O         47.8750   76.1010   29.3620 O.2    20  SER20      -0.2866
     44  CB        46.2930   73.4140   28.0870 C.3    20  SER20       0.2089
     45  OG        45.2550   74.0140   28.8400 O.3    20  SER20      -0.2183
     46  N         46.2920   78.2450   25.9770 N.3    22  ASP22      -0.1239
     47  CA        45.2190   78.6460   25.0720 C.3    22  ASP22       0.1674
     48  C         45.6510   79.9320   24.3780 C.2    22  ASP22       0.2266
     49  O         46.2250   80.8260   25.0040 O.2    22  ASP22      -0.2867
     50  CB        43.8960   78.8850   25.8030 C.3    22  ASP22       0.1410
     51  CG        43.0370   77.6390   25.9090 C.2    22  ASP22       0.3668
     52  OD1       43.4790   76.5520   25.4900 O.co2  22  ASP22      -0.2456
     53  OD2       41.8990   77.7540   26.4070 O.co2  22  ASP22      -0.2456
     54  N         35.9880   72.0320   17.1090 N.3    37  ARG37      -0.1245
     55  CA        36.7080   70.8450   17.5620 C.3    37  ARG37       0.1563
     56  C         36.1450   69.5100   17.0910 C.2    37  ARG37       0.2260
     57  O         34.9410   69.2780   17.1770 O.2    37  ARG37      -0.2867
     58  CB        36.7730   70.8330   19.0890 C.3    37  ARG37       0.0307
     59  CG        37.6310   71.9460   19.6650 C.3    37  ARG37       0.0489
     60  CD        37.6270   71.9590   21.1830 C.3    37  ARG37       0.2205
     61  NE        38.0650   70.6770   21.7290 N.pl3  37  ARG37      -0.0865
     62  CZ        39.3330   70.2920   21.8430 C.cat  37  ARG37       0.5346
     63  NH1       40.3260   71.0770   21.4520 N.pl3  37  ARG37       0.1354
     64  NH2       39.6240   69.1020   22.3510 N.pl3  37  ARG37       0.1354
     65  N         37.7430   66.6070   18.3020 N.3    39  ASN39      -0.1225
     66  CA        38.0870   65.6910   19.3890 C.3    39  ASN39       0.1785
     67  C         37.4050   66.0710   20.6980 C.2    39  ASN39       0.2597
     68  O         37.0250   67.2250   20.8970 O.2    39  ASN39      -0.2718
     69  CB        39.5940   65.7340   19.6480 C.3    39  ASN39       0.1169
     70  CG        40.4180   65.2680   18.4640 C.2    39  ASN39       0.2627
     71  OD1       40.0170   64.3660   17.7300 O.2    39  ASN39      -0.2716
     72  ND2       41.5850   65.8770   18.2780 N.am   39  ASN39      -0.0877
     73  N         37.2530   65.0880   21.5810 N.am   40  ARG40      -0.1966
     74  CA        36.7920   65.3240   22.9440 C.3    40  ARG40       0.1714
     75  C         38.0140   65.8000   23.7290 C.2    40  ARG40       0.2458
     76  O         39.1450   65.4910   23.3500 O.2    40  ARG40      -0.2730
     77  CB        36.2870   64.0380   23.6030 C.3    40  ARG40       0.0347
     78  CG        35.0220   63.4250   23.0240 C.3    40  ARG40       0.0492
     79  CD        34.6900   62.1290   23.7560 C.3    40  ARG40       0.2205
     80  NE        33.4940   61.4520   23.2560 N.pl3  40  ARG40      -0.0865
     81  CZ        32.2470   61.6460   23.6790 C.cat  40  ARG40       0.5346
     82  NH1       31.9550   62.5200   24.6340 N.pl3  40  ARG40       0.1354
     83  NH2       31.2560   60.9540   23.1320 N.pl3  40  ARG40       0.1354
     84  N         37.8150   66.5650   24.8130 N.am   41  PRO41      -0.2716
     85  CA        36.5540   67.0950   25.3220 C.3    41  PRO41       0.1536
     86  C         36.1560   68.3370   24.5310 C.2    41  PRO41       0.2598
     87  O         36.9090   68.7760   23.6660 O.2    41  PRO41      -0.2715
     88  CB        36.8870   67.4310   26.7750 C.3    41  PRO41       0.0310
     89  CG        38.3310   67.7900   26.7440 C.3    41  PRO41       0.0237
     90  CD        38.9540   66.9510   25.6660 C.3    41  PRO41       0.0939
     91  N         34.9890   68.8970   24.8320 N.am   42  ALA42      -0.1978
     92  CA        34.4390   70.0270   24.0870 C.3    42  ALA42       0.1597
     93  C         34.2850   69.7080   22.6000 C.2    42  ALA42       0.2287
     94  O         34.4150   70.5880   21.7520 O.2    42  ALA42      -0.2864
     95  CB        35.2830   71.2800   24.2830 C.3    42  ALA42       0.0319
     96  N         36.1140   76.6870   19.6250 N.3    47  PHE47      -0.1227
     97  CA        37.0200   76.8800   20.7490 C.3    47  PHE47       0.1736
     98  C         38.2830   77.5600   20.2350 C.2    47  PHE47       0.2595
     99  O         38.6420   77.4260   19.0660 O.2    47  PHE47      -0.2718
    100  CB        37.3770   75.5160   21.3530 C.3    47  PHE47       0.0547
    101  CG        37.6330   75.5550   22.8340 C.ar   47  PHE47      -0.0202
    102  CD1       36.6230   75.2310   23.7240 C.ar   47  PHE47      -0.0042
    103  CD2       38.8670   75.9170   23.3450 C.ar   47  PHE47      -0.0042
    104  CE1       36.8340   75.2680   25.0880 C.ar   47  PHE47      -0.0003
    105  CE2       39.0900   75.9630   24.7120 C.ar   47  PHE47      -0.0003
    106  CZ        38.0690   75.6370   25.5850 C.ar   47  PHE47      -0.0000
    107  N         38.9610   78.2890   21.1130 N.am   48  VAL48      -0.1980
    108  CA        40.2380   78.8780   20.7320 C.3    48  VAL48       0.1595
    109  C         41.2540   77.7600   20.5140 C.2    48  VAL48       0.2287
    110  O         41.1230   76.6710   21.0740 O.2    48  VAL48      -0.2864
    111  CB        40.7940   79.8350   21.8020 C.3    48  VAL48       0.0276
    112  CG1       39.8580   81.0100   22.0310 C.3    48  VAL48       0.0022
    113  CG2       41.0800   79.1140   23.1120 C.3    48  VAL48       0.0022
    114  N         44.7010   75.7270   21.1000 N.3    50  GLY50      -0.1210
    115  CA        45.5120   75.5480   22.2960 C.3    50  GLY50       0.1956
    116  C         45.8350   74.0790   22.4740 C.2    50  GLY50       0.2612
    117  O         45.3140   73.2310   21.7490 O.2    50  GLY50      -0.2717
    118  N         46.7050   73.7750   23.4300 N.am   51  GLY51      -0.1942
    119  CA        47.0500   72.3820   23.6920 C.3    51  GLY51       0.2014
    120  C         47.8770   72.2160   24.9480 C.2    51  GLY51       0.2638
    121  O         48.2850   73.1970   25.5680 O.2    51  GLY51      -0.2714
    122  N         48.1510   70.9680   25.3120 N.am   52  ARG52      -0.1977
    123  CA        48.8150   70.7120   26.5830 C.3    52  ARG52       0.1597
    124  C         50.3370   70.6970   26.4980 C.2    52  ARG52       0.2287
    125  O         50.9240   70.3960   25.4600 O.2    52  ARG52      -0.2864
    126  CB        48.3210   69.4190   27.2370 C.3    52  ARG52       0.0334
    127  CG        48.9260   68.1520   26.6720 C.3    52  ARG52       0.0492
    128  CD        48.4720   66.9190   27.4330 C.3    52  ARG52       0.2205
    129  NE        49.3940   65.8230   27.1490 N.pl3  52  ARG52      -0.0865
    130  CZ        50.4040   65.4340   27.9220 C.cat  52  ARG52       0.5346
    131  NH1       50.6810   65.9970   29.0900 N.pl3  52  ARG52       0.1354
    132  NH2       51.1550   64.4220   27.5180 N.pl3  52  ARG52       0.1354
    133  N         53.9100   69.1410   27.6650 N.3    54  GLN54      -0.1245
    134  CA        54.3920   67.7820   27.9010 C.3    54  GLN54       0.1566
    135  C         55.4460   67.6980   28.9990 C.2    54  GLN54       0.2260
    136  O         56.0070   68.7090   29.4220 O.2    54  GLN54      -0.2867
    137  CB        54.9570   67.2220   26.5950 C.3    54  GLN54       0.0367
    138  CG        53.8940   67.1060   25.5140 C.3    54  GLN54       0.0905
    139  CD        54.4540   66.8480   24.1330 C.2    54  GLN54       0.2608
    140  OE1       55.6450   67.0340   23.8820 O.2    54  GLN54      -0.2717
    141  NE2       53.5830   66.4370   23.2190 N.am   54  GLN54      -0.0878
    142  N         56.0210   74.8160   19.9030 N.3    65  ARG65      -0.1231
    143  CA        55.4620   73.5870   19.3540 C.3    65  ARG65       0.1694
    144  C         53.9680   73.7250   19.0830 C.2    65  ARG65       0.2591
    145  O         53.4760   73.2930   18.0390 O.2    65  ARG65      -0.2718
    146  CB        55.7000   72.4210   20.3150 C.3    65  ARG65       0.0321
    147  CG        55.0590   71.1200   19.8600 C.3    65  ARG65       0.0489
    148  CD        55.3400   69.9570   20.7950 C.3    65  ARG65       0.2205
    149  NE        54.8600   70.1950   22.1540 N.pl3  65  ARG65      -0.0865
    150  CZ        53.5930   70.0980   22.5460 C.cat  65  ARG65       0.5346
    151  NH1       52.6260   69.7500   21.7100 N.pl3  65  ARG65       0.1354
    152  NH2       53.2910   70.3510   23.8110 N.pl3  65  ARG65       0.1354
    153  N         53.2590   74.3310   20.0310 N.am   66  LEU66      -0.1980
    154  CA        51.8100   74.4460   19.9590 C.3    66  LEU66       0.1596
    155  C         51.3350   75.4870   18.9590 C.2    66  LEU66       0.2287
    156  O         50.3350   75.2470   18.2920 O.2    66  LEU66      -0.2864
    157  CB        51.2020   74.6860   21.3420 C.3    66  LEU66       0.0297
    158  CG        51.2160   73.4730   22.2770 C.3    66  LEU66       0.0022
    159  CD1       50.9330   73.9010   23.7080 C.3    66  LEU66       0.0001
    160  CD2       50.2240   72.4180   21.8060 C.3    66  LEU66       0.0001
    161  N         49.0080   74.1430   16.0810 N.3    70  GLU70      -0.1245
    162  CA        47.6450   74.6650   16.0320 C.3    70  GLU70       0.1567
    163  C         47.3600   75.6370   14.8970 C.2    70  GLU70       0.2260
    164  O         46.2500   75.6450   14.3660 O.2    70  GLU70      -0.2867
    165  CB        47.3090   75.3770   17.3450 C.3    70  GLU70       0.0388
    166  CG        47.2380   74.4400   18.5420 C.3    70  GLU70       0.1160
    167  CD        45.9890   73.5790   18.5390 C.2    70  GLU70       0.3649
    168  OE1       44.8870   74.0870   18.2450 O.co2  70  GLU70      -0.2457
    169  OE2       46.0980   72.3770   18.8590 O.co2  70  GLU70      -0.2457
    170  N         39.6720   74.5540   33.2450 N.3    88  HIS88      -0.1241
    171  CA        38.6440   73.9510   32.4080 C.3    88  HIS88       0.1621
    172  C         38.3750   72.5370   32.9010 C.2    88  HIS88       0.2264
    173  O         39.2960   71.7240   32.9860 O.2    88  HIS88      -0.2867
    174  CB        39.0730   73.8720   30.9410 C.3    88  HIS88       0.0745
    175  CG        39.4050   75.1840   30.3020 C.ar   88  HIS88       0.0817
    176  ND1       39.9810   75.2520   29.0520 N.ar   88  HIS88      -0.2268
    177  CD2       39.2750   76.4630   30.7270 C.ar   88  HIS88       0.1154
    178  CE1       40.1760   76.5180   28.7310 C.ar   88  HIS88       0.1986
    179  NE2       39.7580   77.2750   29.7290 N.ar   88  HIS88      -0.2212
    180  N         35.9060   69.1690   32.2410 N.3    90  TYR90      -0.1241
    181  CA        35.0090   68.4900   31.3140 C.3    90  TYR90       0.1605
    182  C         34.6180   67.1290   31.8730 C.2    90  TYR90       0.2264
    183  O         35.4360   66.4520   32.4940 O.2    90  TYR90      -0.2867
    184  CB        35.6830   68.3090   29.9550 C.3    90  TYR90       0.0534
    185  CG        36.1260   69.6170   29.3430 C.ar   90  TYR90      -0.0201
    186  CD1       35.2110   70.4700   28.7390 C.ar   90  TYR90      -0.0009
    187  CD2       37.4590   70.0020   29.3720 C.ar   90  TYR90      -0.0009
    188  CE1       35.6140   71.6680   28.1840 C.ar   90  TYR90       0.0417
    189  CE2       37.8690   71.2000   28.8170 C.ar   90  TYR90       0.0417
    190  CZ        36.9440   72.0310   28.2230 C.ar   90  TYR90       0.1957
    191  OH        37.3580   73.2220   27.6680 O.3    90  TYR90      -0.2866
    192  N         39.4330   62.4580   26.0140 N.3    94  PHE94      -0.1241
    193  CA        39.8450   62.1050   24.6570 C.3    94  PHE94       0.1605
    194  C         39.3660   60.7390   24.1670 C.2    94  PHE94       0.2264
    195  O         39.0530   60.5820   22.9870 O.2    94  PHE94      -0.2867
    196  CB        41.3710   62.1770   24.5300 C.3    94  PHE94       0.0534
    197  CG        42.1010   61.0450   25.2000 C.ar   94  PHE94      -0.0203
    198  CD1       42.5640   59.9740   24.4540 C.ar   94  PHE94      -0.0042
    199  CD2       42.3270   61.0430   26.5670 C.ar   94  PHE94      -0.0042
    200  CE1       43.2330   58.9270   25.0580 C.ar   94  PHE94      -0.0003
    201  CE2       42.9960   59.9960   27.1760 C.ar   94  PHE94      -0.0003
    202  CZ        43.4510   58.9370   26.4200 C.ar   94  PHE94      -0.0000
    203  N         41.9830   70.7420   33.0110 N.3   103  TYR103     -0.1241
    204  CA        43.1170   71.5300   32.5560 C.3   103  TYR103      0.1605
    205  C         43.2970   72.7530   33.4450 C.2   103  TYR103      0.2264
    206  O         42.3180   73.4060   33.8170 O.2   103  TYR103     -0.2867
    207  CB        42.9070   72.1140   31.1590 C.3   103  TYR103      0.0534
    208  CG        42.6680   71.1970   29.9830 C.ar  103  TYR103     -0.0201
    209  CD1       43.6740   70.9100   29.0710 C.ar  103  TYR103     -0.0009
    210  CD2       41.4100   70.6640   29.7440 C.ar  103  TYR103     -0.0009
    211  CE1       43.4420   70.0950   27.9780 C.ar  103  TYR103      0.0417
    212  CE2       41.1690   69.8470   28.6540 C.ar  103  TYR103      0.0417
    213  CZ        42.1850   69.5650   27.7710 C.ar  103  TYR103      0.1957
    214  OH        41.9090   68.7580   26.6900 O.3   103  TYR103     -0.2866
    215  N         45.0470   76.1960   32.7600 N.3   105  VAL105     -0.1245
    216  CA        45.2940   76.8260   31.4690 C.3   105  VAL105      0.1561
    217  C         45.9810   78.1810   31.5700 C.2   105  VAL105      0.2260
    218  O         45.5900   79.0170   32.3800 O.2   105  VAL105     -0.2867
    219  CB        43.9420   77.0340   30.7510 C.3   105  VAL105      0.0252
    220  CG1       44.1340   77.5580   29.3360 C.3   105  VAL105      0.0019
    221  CG2       43.1290   75.7440   30.7460 C.3   105  VAL105      0.0019
    222  N         42.5640   68.4700   14.1310 N.3   123  GLN123     -0.1245
    223  CA        41.7760   68.6900   15.3420 C.3   123  GLN123      0.1566
    224  C         40.5430   69.5650   15.1680 C.2   123  GLN123      0.2260
    225  O         39.7240   69.6490   16.0810 O.2   123  GLN123     -0.2867
    226  CB        42.6440   69.3430   16.4190 C.3   123  GLN123      0.0367
    227  CG        43.8480   68.5140   16.8260 C.3   123  GLN123      0.0905
    228  CD        44.7030   69.1900   17.8710 C.2   123  GLN123      0.2608
    229  OE1       44.1910   69.7630   18.8320 O.2   123  GLN123     -0.2717
    230  NE2       46.0180   69.1180   17.6940 N.am  123  GLN123     -0.0878
@<TRIPOS>BOND
     1   222   223    1
     2   164   163    2
     3   163   162    1
     4   224   223    1
     5   224   225    2
     6   223   226    1
     7   162   161    1
     8   162   165    1
     9   226   227    1
    10   227   228    1
    11    56    57    2
    12    56    55    1
    13    54    55    1
    14   165   166    1
    15    55    58    1
    16   230   228   am
    17    71    70    2
    18   228   229    2
    19   145   144    2
    20   168   167   ar
    21    72    70   am
    22   156   155    2
    23    65    66    1
    24    70    69    1
    25   167   166    1
    26   167   169   ar
    27   155   154    1
    28    99    98    2
    29   144   143    1
    30   144   153   am
    31    58    59    1
    32   143   142    1
    33   143   146    1
    34    66    69    1
    35    66    67    1
    36    96    97    1
    37    59    60    1
    38   147   146    1
    39   147   148    1
    40   154   153    1
    41   154   157    1
    42    98    97    1
    43    98   107   am
    44   109   108    1
    45   109   110    2
    46    10    11   ar
    47    10     8   ar
    48    11     9   ar
    49    67    68    2
    50    67    73   am
    51   108   107    1
    52   108   111    1
    53    97   100    1
    54   148   149    1
    55     8     6   ar
    56     9     7   ar
    57   114   115    1
    58    60    61    1
    59   157   158    1
    60   100   101    1
    61    63    62    1
    62     6     7   ar
    63     6     5    1
    64    73    74    1
    65   151   150    1
    66    61    62    2
    67   117   116    2
    68    94    93    2
    69   111   112    1
    70   111   113    1
    71   160   158    1
    72    62    64    1
    73    27    26    2
    74     5     2    1
    75   149   150    2
    76   158   159    1
    77   115   116    1
    78   116   118   am
    79   150   152    1
    80    93    92    1
    81   101   103   ar
    82   101   102   ar
    83    74    77    1
    84    74    75    1
    85   195   194    2
    86    78    77    1
    87    78    79    1
    88    26    28   am
    89    26    25    1
    90    83    81    1
    91   141   139   am
    92    80    81    2
    93    80    79    1
    94   103   105   ar
    95    76    75    2
    96   118   119    1
    97     2     3    1
    98     2     1    1
    99     4     3    2
   100    87    86    2
   101    81    82    1
   102   119   120    1
   103   102   104   ar
   104    75    84   am
   105    24    25    1
   106    24    21    1
   107   140   139    2
   108     3    12   am
   109    15    14    2
   110    92    95    1
   111    92    91    1
   112   139   138    1
   113   194   193    1
   114    48    49    2
   115    48    47    1
   116    20    21    1
   117   198   200   ar
   118   198   197   ar
   119   196   193    1
   120   196   197    1
   121    86    91   am
   122    86    85    1
   123   193   192    1
   124   105   106   ar
   125    84    85    1
   126    84    90    1
   127    14    13    1
   128    21    22    1
   129    12    13    1
   130   120   122   am
   131   120   121    2
   132   200   202   ar
   133    47    50    1
   134    47    46    1
   135   104   106   ar
   136   197   199   ar
   137   122   123    1
   138    85    88    1
   139   125   124    2
   140    52    51   ar
   141   138   137    1
   142    13    16    1
   143    90    89    1
   144    50    51    1
   145    51    53   ar
   146    38    36   ar
   147    38    39   ar
   148    36    34   ar
   149    22    23    2
   150   202   201   ar
   151   124   123    1
   152   199   201   ar
   153   123   126    1
   154   137   134    1
   155   127   126    1
   156   127   128    1
   157   214   213    1
   158    89    88    1
   159    39    37   ar
   160    16    17    1
   161    34    33    1
   162    34    35   ar
   163   129   128    1
   164   129   130    2
   165    33    30    1
   166   132   130    1
   167    37    35   ar
   168   133   134    1
   169   191   190    1
   170   213   211   ar
   171   213   212   ar
   172    17    19    1
   173    17    18    1
   174   134   135    1
   175   130   131    1
   176   211   209   ar
   177    44    41    1
   178    44    45    1
   179   188   190   ar
   180   188   186   ar
   181   190   189   ar
   182    42    41    1
   183    42    43    2
   184    30    29    1
   185    30    31    1
   186    41    40    1
   187   212   210   ar
   188   178   176   ar
   189   178   179   ar
   190   186   185   ar
   191   189   187   ar
   192   135   136    2
   193   176   175   ar
   194   209   208   ar
   195   220   219    1
   196   185   187   ar
   197   185   184    1
   198    31    32    2
   199   179   177   ar
   200   210   208   ar
   201   184   181    1
   202   208   207    1
   203   175   177   ar
   204   175   174    1
   205   221   219    1
   206   219   216    1
   207   174   171    1
   208   207   204    1
   209   181   182    1
   210   181   180    1
   211   216   217    1
   212   216   215    1
   213   217   218    2
   214   182   183    2
   215   171   172    1
   216   171   170    1
   217   204   203    1
   218   204   205    1
   219   172   173    2
   220   205   206    2
