@<TRIPOS>MOLECULE
tmp/2i96A00.pdb
 159 152 0 0 0
SMALL
GASTEIGER

@<TRIPOS>ATOM
      1  N         -2.3840    5.5400    4.3530 N.3    28  LEU28      -0.1245
      2  CA        -3.7920    5.4420    4.0040 C.3    28  LEU28       0.1561
      3  C         -4.0540    4.2020    3.1690 C.2    28  LEU28       0.2260
      4  O         -3.1270    3.6260    2.6020 O.2    28  LEU28      -0.2867
      5  CB        -4.3110    6.6970    3.2750 C.3    28  LEU28       0.0270
      6  CG        -3.6860    6.9980    1.9080 C.3    28  LEU28       0.0019
      7  CD1       -4.5380    7.9990    1.1520 C.3    28  LEU28       0.0001
      8  CD2       -2.2770    7.5420    2.0630 C.3    28  LEU28       0.0001
      9  N         -6.6530    3.1420    0.0860 N.3    30  LEU30      -0.1245
     10  CA        -7.7230    3.5400   -0.8210 C.3    30  LEU30       0.1561
     11  C         -8.7220    2.4140   -1.0210 C.2    30  LEU30       0.2260
     12  O         -9.9100    2.6470   -1.1530 O.2    30  LEU30      -0.2867
     13  CB        -7.1710    3.9940   -2.1710 C.3    30  LEU30       0.0270
     14  CG        -6.4720    5.3520   -2.1710 C.3    30  LEU30       0.0019
     15  CD1       -6.0210    5.6960   -3.5790 C.3    30  LEU30       0.0001
     16  CD2       -7.3960    6.4320   -1.6250 C.3    30  LEU30       0.0001
     17  N         -0.7010    3.4260    1.2950 N.3    35  TYR35      -0.1241
     18  CA         0.1450    4.5050    0.7970 C.3    35  TYR35       0.1605
     19  C          0.7710    5.2420    1.9720 C.2    35  TYR35       0.2264
     20  O          0.3840    5.0220    3.1190 O.2    35  TYR35      -0.2867
     21  CB        -0.6540    5.5070   -0.0600 C.3    35  TYR35       0.0534
     22  CG        -1.3430    4.9350   -1.2870 C.ar   35  TYR35      -0.0201
     23  CD1       -2.2900    3.9260   -1.1750 C.ar   35  TYR35      -0.0009
     24  CD2       -1.0630    5.4280   -2.5580 C.ar   35  TYR35      -0.0009
     25  CE1       -2.9330    3.4210   -2.2860 C.ar   35  TYR35       0.0417
     26  CE2       -1.7090    4.9330   -3.6740 C.ar   35  TYR35       0.0417
     27  CZ        -2.6420    3.9290   -3.5320 C.ar   35  TYR35       0.1957
     28  OH        -3.2830    3.4310   -4.6420 O.3    35  TYR35      -0.2866
     29  N          1.8820    9.3650    3.1520 N.3    37  LEU37      -0.1245
     30  CA         1.9330   10.7880    2.8150 C.3    37  LEU37       0.1561
     31  C          2.6840   11.5650    3.8910 C.2    37  LEU37       0.2260
     32  O          2.5590   12.7800    3.9680 O.2    37  LEU37      -0.2867
     33  CB         0.5330   11.4030    2.6720 C.3    37  LEU37       0.0270
     34  CG        -0.4710   10.6120    1.8290 C.3    37  LEU37       0.0019
     35  CD1       -1.8810   11.1560    2.0180 C.3    37  LEU37       0.0001
     36  CD2       -0.0930   10.6620    0.3600 C.3    37  LEU37       0.0001
     37  N          0.3320   17.9050   -1.4110 N.3    44  HIS44      -0.1227
     38  CA        -0.9590   17.5640   -1.9940 C.3    44  HIS44       0.1737
     39  C         -1.9740   18.6950   -1.8180 C.2    44  HIS44       0.2438
     40  O         -2.1850   19.1730   -0.7020 O.2    44  HIS44      -0.2733
     41  CB        -1.4570   16.2750   -1.3450 C.3    44  HIS44       0.0758
     42  CG        -2.8510   15.7850   -1.6780 C.ar   44  HIS44       0.0818
     43  ND1       -3.9360   15.9420   -0.8350 N.ar   44  HIS44      -0.2268
     44  CD2       -3.2810   15.0900   -2.7840 C.ar   44  HIS44       0.1154
     45  CE1       -4.9980   15.3530   -1.4120 C.ar   44  HIS44       0.1986
     46  NE2       -4.6310   14.8270   -2.5890 N.ar   44  HIS44      -0.2212
     47  N         -2.6080   19.1310   -2.9330 N.am   45  PRO45      -0.2718
     48  CA        -3.5980   20.2260   -2.9400 C.3    45  PRO45       0.1535
     49  C         -4.6640   20.0910   -1.8530 C.2    45  PRO45       0.2599
     50  O         -5.5260   19.2150   -1.9380 O.2    45  PRO45      -0.2715
     51  CB        -4.2450   20.0960   -4.3190 C.3    45  PRO45       0.0310
     52  CG        -3.1880   19.5080   -5.1800 C.3    45  PRO45       0.0237
     53  CD        -2.3930   18.5890   -4.2930 C.3    45  PRO45       0.0939
     54  N         -4.6180   20.9610   -0.8520 N.am   46  GLY46      -0.1955
     55  CA        -5.6230   20.9350    0.1960 C.3    46  GLY46       0.1869
     56  C         -5.6430   19.6180    0.9420 C.2    46  GLY46       0.2309
     57  O         -6.6680   18.9270    0.9820 O.2    46  GLY46      -0.2863
     58  N         -7.3280   17.3120    6.1540 N.3    50  VAL50      -0.1231
     59  CA        -8.3950   16.4360    5.6740 C.3    50  VAL50       0.1692
     60  C         -7.8940   15.0400    5.3650 C.2    50  VAL50       0.2591
     61  O         -8.6850   14.1490    5.0590 O.2    50  VAL50      -0.2718
     62  CB        -9.0810   17.0090    4.4200 C.3    50  VAL50       0.0266
     63  CG1       -9.7320   18.3390    4.7460 C.3    50  VAL50       0.0020
     64  CG2       -8.0960   17.1490    3.2650 C.3    50  VAL50       0.0020
     65  N         -6.5890   14.8460    5.4410 N.am   51  LEU51      -0.1980
     66  CA        -6.0300   13.5320    5.1880 C.3    51  LEU51       0.1596
     67  C         -6.2360   12.6430    6.4100 C.2    51  LEU51       0.2287
     68  O         -6.6720   11.5000    6.2810 O.2    51  LEU51      -0.2864
     69  CB        -4.5380   13.6520    4.8480 C.3    51  LEU51       0.0297
     70  CG        -4.2400   14.4570    3.5800 C.3    51  LEU51       0.0022
     71  CD1       -2.7440   14.5260    3.3390 C.3    51  LEU51       0.0001
     72  CD2       -4.9460   13.8400    2.3770 C.3    51  LEU51       0.0001
     73  N         -9.2380   10.3570    6.9890 N.3    54  GLN54      -0.1245
     74  CA        -9.5010    9.2890    6.0310 C.3    54  GLN54       0.1566
     75  C         -8.3120    8.3390    5.9720 C.2    54  GLN54       0.2260
     76  O         -8.3450    7.3080    5.3030 O.2    54  GLN54      -0.2867
     77  CB        -9.7320    9.9200    4.6550 C.3    54  GLN54       0.0367
     78  CG       -10.7700   11.0350    4.6630 C.3    54  GLN54       0.0905
     79  CD       -12.1970   10.5310    4.8120 C.2    54  GLN54       0.2608
     80  OE1      -12.4510    9.4890    5.4090 O.2    54  GLN54      -0.2717
     81  NE2      -13.1450   11.2850    4.2730 N.am   54  GLN54      -0.0878
     82  N         -9.8360    5.5100    2.5340 N.3    59  ALA59      -0.1245
     83  CA        -9.9130    6.9260    2.1940 C.3    59  ALA59       0.1562
     84  C        -10.6500    7.1420    0.8790 C.2    59  ALA59       0.2260
     85  O        -10.7130    8.2610    0.3620 O.2    59  ALA59      -0.2867
     86  CB        -8.5170    7.5120    2.0960 C.3    59  ALA59       0.0290
     87  N        -14.0670    9.9790   -0.7950 N.3    62  ASN62      -0.1225
     88  CA       -13.9800   11.1400   -1.6820 C.3    62  ASN62       0.1785
     89  C        -13.5040   10.7270   -3.0750 C.2    62  ASN62       0.2597
     90  O        -13.6820   11.4430   -4.0610 O.2    62  ASN62      -0.2718
     91  CB       -13.0090   12.1550   -1.0600 C.3    62  ASN62       0.1169
     92  CG       -12.8490   13.4430   -1.8610 C.2    62  ASN62       0.2627
     93  OD1      -13.6240   14.3850   -1.7060 O.2    62  ASN62      -0.2716
     94  ND2      -11.8200   13.5050   -2.6980 N.am   62  ASN62      -0.0877
     95  N        -12.8950    9.5440   -3.1220 N.am   63  PHE63      -0.1976
     96  CA       -12.2310    9.0380   -4.3190 C.3    63  PHE63       0.1639
     97  C        -13.2410    8.3770   -5.2480 C.2    63  PHE63       0.2290
     98  O        -13.1200    8.4430   -6.4640 O.2    63  PHE63      -0.2864
     99  CB       -11.1450    8.0320   -3.9070 C.3    63  PHE63       0.0560
    100  CG       -10.2580    7.5780   -5.0400 C.ar   63  PHE63      -0.0200
    101  CD1      -10.6330    6.5200   -5.8560 C.ar   63  PHE63      -0.0042
    102  CD2       -9.0500    8.2110   -5.2910 C.ar   63  PHE63      -0.0042
    103  CE1       -9.8250    6.1090   -6.9010 C.ar   63  PHE63      -0.0003
    104  CE2       -8.2390    7.8060   -6.3350 C.ar   63  PHE63      -0.0003
    105  CZ        -8.6270    6.7520   -7.1400 C.ar   63  PHE63      -0.0000
    106  N        -11.3610   11.9860   -8.6440 N.3    68  HIS68      -0.1226
    107  CA       -10.1330   12.7090   -9.0030 C.3    68  HIS68       0.1752
    108  C        -10.1120   12.9830  -10.5090 C.2    68  HIS68       0.2596
    109  O        -11.1570   13.2050  -11.1260 O.2    68  HIS68      -0.2718
    110  CB        -8.8690   11.9180   -8.6130 C.3    68  HIS68       0.0759
    111  CG        -8.4010   12.0950   -7.1960 C.ar   68  HIS68       0.0818
    112  ND1       -8.7400   11.2430   -6.1510 N.ar   68  HIS68      -0.2268
    113  CD2       -7.5160   12.9890   -6.6790 C.ar   68  HIS68       0.1154
    114  CE1       -8.0560   11.6340   -5.0580 C.ar   68  HIS68       0.1986
    115  NE2       -7.3130   12.6660   -5.3520 N.ar   68  HIS68      -0.2212
    116  N         -8.9210   12.9940  -11.0860 N.am   69  SER69      -0.1952
    117  CA        -8.7680   13.0200  -12.5280 C.3    69  SER69       0.1924
    118  C         -7.5630   12.1680  -12.9200 C.2    69  SER69       0.2314
    119  O         -6.9060   11.5970  -12.0400 O.2    69  SER69      -0.2863
    120  CB        -8.6400   14.4620  -13.0370 C.3    69  SER69       0.2116
    121  OG        -7.7190   15.2060  -12.2620 O.3    69  SER69      -0.2180
    122  N         -4.6030   12.6120  -13.6330 N.3    71  ASP71      -0.1225
    123  CA        -3.3540   12.9870  -12.9700 C.3    71  ASP71       0.1805
    124  C         -3.0480   12.0930  -11.7610 C.2    71  ASP71       0.2597
    125  O         -1.9310   11.6000  -11.5930 O.2    71  ASP71      -0.2718
    126  CB        -3.4580   14.4460  -12.5200 C.3    71  ASP71       0.1424
    127  CG        -4.1910   15.3060  -13.5360 C.2    71  ASP71       0.3668
    128  OD1       -5.4420   15.2980  -13.5240 O.co2  71  ASP71      -0.2456
    129  OD2       -3.5300   15.9650  -14.3630 O.co2  71  ASP71      -0.2456
    130  N         -4.0650   11.8830  -10.9310 N.am   72  ALA72      -0.1979
    131  CA        -3.9040   11.2320   -9.6320 C.3    72  ALA72       0.1597
    132  C         -3.8020    9.7150   -9.7460 C.2    72  ALA72       0.2287
    133  O         -3.3760    9.0460   -8.8080 O.2    72  ALA72      -0.2864
    134  CB        -5.0650   11.6090   -8.7330 C.3    72  ALA72       0.0319
    135  N          0.2270    9.4950  -10.8970 N.3    75  MET75      -0.1230
    136  CA         1.2260   10.0750  -10.0180 C.3    75  MET75       0.1702
    137  C          1.3590    9.2670   -8.7320 C.2    75  MET75       0.2593
    138  O          2.4150    9.2360   -8.1070 O.2    75  MET75      -0.2718
    139  CB         0.8250   11.5150   -9.6930 C.3    75  MET75       0.0401
    140  CG         1.8090   12.2380   -8.7900 C.3    75  MET75       0.0596
    141  SD         1.3230   13.9410   -8.4480 S.3    75  MET75      -0.1393
    142  CE         1.2890   14.6180  -10.1050 C.3    75  MET75       0.0692
    143  N          0.2630    8.6100   -8.3550 N.am   76  SER76      -0.1952
    144  CA         0.1340    8.0160   -7.0310 C.3    76  SER76       0.1924
    145  C          0.9570    6.7350   -6.8870 C.2    76  SER76       0.2314
    146  O          1.1060    6.1870   -5.7950 O.2    76  SER76      -0.2863
    147  CB        -1.3410    7.7610   -6.7300 C.3    76  SER76       0.2116
    148  OG        -1.9510    6.9930   -7.7500 O.3    76  SER76      -0.2180
    149  N          3.5560    6.2060   -4.4690 N.3    79  PHE79      -0.1241
    150  CA         3.0930    6.4500   -3.1110 C.3    79  PHE79       0.1605
    151  C          2.7160    5.1270   -2.4720 C.2    79  PHE79       0.2264
    152  O          2.6000    5.0050   -1.2530 O.2    79  PHE79      -0.2867
    153  CB         1.8930    7.3930   -3.1360 C.3    79  PHE79       0.0534
    154  CG         2.2640    8.8060   -3.4520 C.ar   79  PHE79      -0.0203
    155  CD1        2.3720    9.2420   -4.7590 C.ar   79  PHE79      -0.0042
    156  CD2        2.4960    9.6990   -2.4300 C.ar   79  PHE79      -0.0042
    157  CE1        2.7090   10.5520   -5.0400 C.ar   79  PHE79      -0.0003
    158  CE2        2.8270   11.0080   -2.7020 C.ar   79  PHE79      -0.0003
    159  CZ         2.9360   11.4370   -4.0070 C.ar   79  PHE79      -0.0000
@<TRIPOS>BOND
     1   129   127   ar
     2   122   123    1
     3   127   128   ar
     4   127   126    1
     5   120   117    1
     6   120   121    1
     7   123   126    1
     8   123   124    1
     9   118   117    1
    10   118   119    2
    11   117   116    1
    12   124   125    2
    13   124   130   am
    14   109   108    2
    15   116   108   am
    16   130   131    1
    17   135   136    1
    18   108   107    1
    19   142   141    1
    20   136   139    1
    21   136   137    1
    22   132   131    1
    23   132   133    2
    24   139   140    1
    25   131   134    1
    26   107   106    1
    27   107   110    1
    28   140   141    1
    29   137   143   am
    30   137   138    2
    31   110   111    1
    32   143   144    1
    33   148   147    1
    34   111   113   ar
    35   111   112   ar
    36   105   103   ar
    37   105   104   ar
    38   144   145    1
    39   144   147    1
    40   103   101   ar
    41   145   146    2
    42   113   115   ar
    43    98    97    2
    44   104   102   ar
    45   112   114   ar
    46   101   100   ar
    47   115   114   ar
    48   102   100   ar
    49    97    96    1
    50    52    51    1
    51    52    53    1
    52   100    99    1
    53   157   155   ar
    54   157   159   ar
    55   155   154   ar
    56    28    27    1
    57   149   150    1
    58    96    99    1
    59    96    95    1
    60    51    48    1
    61    53    47    1
    62    90    89    2
    63   159   158   ar
    64    26    27   ar
    65    26    24   ar
    66    15    14    1
    67    27    25   ar
    68   154   153    1
    69   154   156   ar
    70   153   150    1
    71    95    89   am
    72   150   151    1
    73    89    88    1
    74    48    47    1
    75    48    49    1
    76    47    39   am
    77    44    46   ar
    78    44    42   ar
    79   158   156   ar
    80    94    92   am
    81    46    45   ar
    82    24    22   ar
    83   151   152    2
    84    25    23   ar
    85    13    14    1
    86    13    10    1
    87    14    16    1
    88    38    39    1
    89    38    37    1
    90    38    41    1
    91    50    49    2
    92    92    93    2
    93    92    91    1
    94    49    54   am
    95    39    40    2
    96    88    91    1
    97    88    87    1
    98    42    41    1
    99    42    43   ar
   100    45    43   ar
   101    22    23   ar
   102    22    21    1
   103    12    11    2
   104    11    10    1
   105    54    55    1
   106    10     9    1
   107    21    18    1
   108    55    56    1
   109    36    34    1
   110    85    84    2
   111    18    17    1
   112    18    19    1
   113    84    83    1
   114    56    57    2
   115     7     6    1
   116    34    35    1
   117    34    33    1
   118     6     8    1
   119     6     5    1
   120    19    20    2
   121    86    83    1
   122    83    82    1
   123    72    70    1
   124     4     3    2
   125    33    30    1
   126    30    29    1
   127    30    31    1
   128     3     2    1
   129    64    62    1
   130     5     2    1
   131    71    70    1
   132    70    69    1
   133    31    32    2
   134     2     1    1
   135    81    79   am
   136    62    63    1
   137    62    59    1
   138    77    78    1
   139    77    74    1
   140    78    79    1
   141    79    80    2
   142    69    66    1
   143    61    60    2
   144    66    65    1
   145    66    67    1
   146    76    75    2
   147    60    65   am
   148    60    59    1
   149    59    58    1
   150    75    74    1
   151    74    73    1
   152    68    67    2
