@<TRIPOS>MOLECULE
tmp/2i9uB00.pdb
 121 116 0 0 0
SMALL
GASTEIGER

@<TRIPOS>ATOM
      1  N        105.5710   -7.8850    3.1720 N.3    67  HIS67      -0.1241
      2  CA       105.4180   -8.5950    1.9110 C.3    67  HIS67       0.1621
      3  C        105.0080   -7.5860    0.8480 C.2    67  HIS67       0.2264
      4  O        103.8330   -7.2240    0.7320 O.2    67  HIS67      -0.2867
      5  CB       104.3700   -9.6950    2.0650 C.3    67  HIS67       0.0745
      6  CG       104.7920  -10.7920    2.9930 C.ar   67  HIS67       0.0817
      7  ND1      105.3690  -11.9640    2.5480 N.ar   67  HIS67      -0.2268
      8  CD2      104.7610  -10.8770    4.3440 C.ar   67  HIS67       0.1154
      9  CE1      105.6730  -12.7240    3.5860 C.ar   67  HIS67       0.1986
     10  NE2      105.3150  -12.0880    4.6880 N.ar   67  HIS67      -0.2212
     11  N        102.0530   -8.0790   -1.5680 N.3    70  GLN70      -0.1245
     12  CA       100.7140   -8.1890   -0.9950 C.3    70  GLN70       0.1566
     13  C        100.0300   -6.8350   -0.8070 C.2    70  GLN70       0.2260
     14  O         98.9440   -6.7560   -0.2330 O.2    70  GLN70      -0.2867
     15  CB       100.7970   -8.9080    0.3550 C.3    70  GLN70       0.0367
     16  CG       101.0860  -10.3970    0.2510 C.3    70  GLN70       0.0905
     17  CD       101.3870  -11.0230    1.6020 C.2    70  GLN70       0.2608
     18  OE1      100.8770  -10.5790    2.6330 O.2    70  GLN70      -0.2717
     19  NE2      102.2050  -12.0680    1.6000 N.am   70  GLN70      -0.0878
     20  N         96.1160  -17.8040    9.2550 N.3    82  LEU82      -0.1245
     21  CA        97.2560  -18.0040    8.3590 C.3    82  LEU82       0.1561
     22  C         97.1250  -18.9120    7.1400 C.2    82  LEU82       0.2260
     23  O         97.0210  -18.4250    6.0130 O.2    82  LEU82      -0.2867
     24  CB        98.4940  -18.4350    9.1540 C.3    82  LEU82       0.0270
     25  CG        99.7850  -18.4420    8.3130 C.3    82  LEU82       0.0019
     26  CD1      100.0970  -17.0270    7.8140 C.3    82  LEU82       0.0001
     27  CD2      100.9410  -18.9770    9.1360 C.3    82  LEU82       0.0001
     28  N         94.2430  -18.3830    4.7970 N.3    85  TRP85      -0.1227
     29  CA        94.3680  -17.0060    4.3220 C.3    85  TRP85       0.1737
     30  C         95.3190  -17.0150    3.1250 C.2    85  TRP85       0.2595
     31  O         95.0770  -16.3560    2.1130 O.2    85  TRP85      -0.2718
     32  CB        94.9400  -16.1260    5.4380 C.3    85  TRP85       0.0564
     33  CG        95.2600  -14.7150    5.0350 C.ar   85  TRP85       0.0003
     34  CD1       94.3790  -13.6920    4.8460 C.ar   85  TRP85       0.0946
     35  CD2       96.5640  -14.1650    4.8230 C.ar   85  TRP85       0.0152
     36  NE1       95.0550  -12.5320    4.5380 N.ar   85  TRP85      -0.2442
     37  CE2       96.3970  -12.7970    4.5160 C.ar   85  TRP85       0.0810
     38  CE3       97.8590  -14.6970    4.8650 C.ar   85  TRP85       0.0012
     39  CZ2       97.4810  -11.9510    4.2530 C.ar   85  TRP85       0.0191
     40  CZ3       98.9380  -13.8530    4.6040 C.ar   85  TRP85       0.0001
     41  CH2       98.7390  -12.4970    4.3030 C.ar   85  TRP85       0.0015
     42  N         96.4020  -17.7750    3.2610 N.am   86  LEU86      -0.1980
     43  CA        97.4050  -17.9130    2.2120 C.3    86  LEU86       0.1596
     44  C         96.8200  -18.5810    0.9640 C.2    86  LEU86       0.2287
     45  O         97.0270  -18.1110   -0.1550 O.2    86  LEU86      -0.2864
     46  CB        98.5880  -18.7420    2.7260 C.3    86  LEU86       0.0297
     47  CG        99.5710  -18.0880    3.7010 C.3    86  LEU86       0.0022
     48  CD1      100.5360  -19.1350    4.2480 C.3    86  LEU86       0.0001
     49  CD2      100.3360  -16.9870    2.9850 C.3    86  LEU86       0.0001
     50  N        110.3200  -19.0630    2.2230 N.3   194  ARG194     -0.1231
     51  CA       109.0750  -18.5060    2.7560 C.3   194  ARG194      0.1694
     52  C        108.8930  -18.9140    4.2160 C.2   194  ARG194      0.2592
     53  O        108.6640  -18.0700    5.0810 O.2   194  ARG194     -0.2718
     54  CB       107.8610  -18.9430    1.9370 C.3   194  ARG194      0.0321
     55  CG       106.7160  -17.9510    2.0940 C.3   194  ARG194      0.0489
     56  CD       105.3900  -18.4500    1.5820 C.3   194  ARG194      0.2205
     57  NE       104.3960  -17.3810    1.6820 N.pl3 194  ARG194     -0.0865
     58  CZ       104.2000  -16.4540    0.7500 C.cat 194  ARG194      0.5346
     59  NH1      104.9220  -16.4690   -0.3680 N.pl3 194  ARG194      0.1354
     60  NH2      103.3100  -15.4930    0.9500 N.pl3 194  ARG194      0.1354
     61  N        108.9930  -20.2160    4.4600 N.am  195  PHE195     -0.1976
     62  CA       108.9160  -20.8260    5.7870 C.3   195  PHE195      0.1639
     63  C        108.8430  -22.3450    5.6130 C.2   195  PHE195      0.2290
     64  O        108.4710  -22.8330    4.5500 O.2   195  PHE195     -0.2864
     65  CB       107.7470  -20.2670    6.6430 C.3   195  PHE195      0.0560
     66  CG       106.3670  -20.6300    6.1660 C.ar  195  PHE195     -0.0200
     67  CD1      105.2970  -20.5990    7.0640 C.ar  195  PHE195     -0.0042
     68  CD2      106.1160  -20.9840    4.8440 C.ar  195  PHE195     -0.0042
     69  CE1      103.9980  -20.9160    6.6530 C.ar  195  PHE195     -0.0003
     70  CE2      104.8280  -21.3010    4.4240 C.ar  195  PHE195     -0.0003
     71  CZ       103.7650  -21.2680    5.3290 C.ar  195  PHE195     -0.0000
     72  N        109.7430  -16.9780    8.5370 N.3   221  HIS221     -0.1241
     73  CA       108.6880  -16.8960    9.5530 C.3   221  HIS221      0.1621
     74  C        108.8870  -17.9770   10.6100 C.2   221  HIS221      0.2264
     75  O        109.4070  -19.0540   10.3100 O.2   221  HIS221     -0.2867
     76  CB       107.3010  -17.0840    8.9330 C.3   221  HIS221      0.0745
     77  CG       106.9530  -16.0770    7.8810 C.ar  221  HIS221      0.0817
     78  ND1      107.3150  -16.2260    6.5580 N.ar  221  HIS221     -0.2268
     79  CD2      106.2480  -14.9230    7.9500 C.ar  221  HIS221      0.1154
     80  CE1      106.8430  -15.2100    5.8580 C.ar  221  HIS221      0.1986
     81  NE2      106.1910  -14.4050    6.6780 N.ar  221  HIS221     -0.2212
     82  N        104.1310  -18.7120   14.1290 N.3   224  GLU224     -0.1245
     83  CA       103.1390  -17.6400   14.0840 C.3   224  GLU224      0.1567
     84  C        101.7210  -18.1480   14.3220 C.2   224  GLU224      0.2260
     85  O        100.9210  -17.5030   15.0050 O.2   224  GLU224     -0.2867
     86  CB       103.1920  -16.9520   12.7130 C.3   224  GLU224      0.0388
     87  CG       101.9520  -16.1380   12.3500 C.3   224  GLU224      0.1160
     88  CD       102.0550  -15.5210   10.9610 C.2   224  GLU224      0.3649
     89  OE1      102.7740  -16.0920   10.1030 O.co2 224  GLU224     -0.2457
     90  OE2      101.4110  -14.4770   10.7210 O.co2 224  GLU224     -0.2457
     91  N        107.2650  -12.9160   13.7690 N.3   261  HIS261     -0.1241
     92  CA       106.2000  -13.3510   14.6830 C.3   261  HIS261      0.1621
     93  C        106.6480  -13.9880   15.9860 C.2   261  HIS261      0.2264
     94  O        106.5270  -13.3640   17.0440 O.2   261  HIS261     -0.2867
     95  CB       105.2420  -14.2680   13.9340 C.3   261  HIS261      0.0745
     96  CG       104.7380  -13.6570   12.6620 C.ar  261  HIS261      0.0817
     97  ND1      104.0650  -12.4540   12.6270 N.ar  261  HIS261     -0.2268
     98  CD2      104.8370  -14.0650   11.3760 C.ar  261  HIS261      0.1154
     99  CE1      103.7680  -12.1480   11.3770 C.ar  261  HIS261      0.1986
    100  NE2      104.2250  -13.1100   10.5970 N.ar  261  HIS261     -0.2212
    101  N         95.0580  -11.6550   11.8570 N.3   290  LEU290     -0.1245
    102  CA        94.8300  -13.0430   11.4540 C.3   290  LEU290      0.1561
    103  C         94.5440  -13.9290   12.6630 C.2   290  LEU290      0.2260
    104  O         94.5290  -15.1550   12.5490 O.2   290  LEU290     -0.2867
    105  CB        96.0310  -13.6050   10.6900 C.3   290  LEU290      0.0270
    106  CG        96.5130  -12.8700    9.4350 C.3   290  LEU290      0.0019
    107  CD1       97.6600  -13.6580    8.8230 C.3   290  LEU290      0.0001
    108  CD2       95.3790  -12.7160    8.4360 C.3   290  LEU290      0.0001
    109  N        104.4500   -6.2710    8.3360 N.3   312  ASP312     -0.1239
    110  CA       103.9180   -7.5140    7.7670 C.3   312  ASP312      0.1674
    111  C        102.6990   -7.2590    6.9130 C.2   312  ASP312      0.2266
    112  O        101.7170   -8.0230    6.9560 O.2   312  ASP312     -0.2867
    113  CB       103.5780   -8.5470    8.8520 C.3   312  ASP312      0.1410
    114  CG       103.2910   -9.9320    8.2640 C.2   312  ASP312      0.3668
    115  OD1      103.8510  -10.2220    7.1850 O.co2 312  ASP312     -0.2456
    116  OD2      102.5330  -10.7190    8.8770 O.co2 312  ASP312     -0.2456
    117  N         98.7790   -8.8700    5.8880 N.3   315  ALA315     -0.1245
    118  CA        98.3750   -9.5090    7.1380 C.3   315  ALA315      0.1562
    119  C         98.2270   -8.3030    8.0760 C.2   315  ALA315      0.2260
    120  O         97.2070   -8.1340    8.7360 O.2   315  ALA315     -0.2867
    121  CB        99.4480  -10.4310    7.6380 C.3   315  ALA315      0.0290
@<TRIPOS>BOND
     1    11    12    1
     2    12    13    1
     3    12    15    1
     4    13    14    2
     5    59    58    1
     6    45    44    2
     7    16    15    1
     8    16    17    1
     9     4     3    2
    10    58    60    1
    11    58    57    2
    12     3     2    1
    13    44    43    1
    14    56    57    1
    15    56    55    1
    16    19    17   am
    17    17    18    2
    18     2     5    1
    19     2     1    1
    20    54    55    1
    21    54    51    1
    22     5     6    1
    23    31    30    2
    24    43    46    1
    25    43    42    1
    26    50    51    1
    27     7     6   ar
    28     7     9   ar
    29    46    47    1
    30    51    52    1
    31    49    47    1
    32     6     8   ar
    33    30    42   am
    34    30    29    1
    35     9    10   ar
    36    47    48    1
    37    52    61   am
    38    52    53    2
    39    39    41   ar
    40    39    37   ar
    41    41    40   ar
    42    29    28    1
    43    29    32    1
    44     8    10   ar
    45    70    68   ar
    46    70    71   ar
    47    61    62    1
    48    37    36   ar
    49    37    35   ar
    50    36    34   ar
    51    64    63    2
    52    40    38   ar
    53    35    38   ar
    54    35    33   ar
    55    68    66   ar
    56    34    33   ar
    57    33    32    1
    58    71    69   ar
    59    63    62    1
    60    62    65    1
    61    80    78   ar
    62    80    81   ar
    63   117   118    1
    64    23    22    2
    65    66    65    1
    66    66    67   ar
    67    78    77   ar
    68    69    67   ar
    69    81    79   ar
    70   111   112    2
    71   111   110    1
    72   118   121    1
    73   118   119    1
    74    22    21    1
    75   115   114   ar
    76   110   109    1
    77   110   113    1
    78    26    25    1
    79    77    79   ar
    80    77    76    1
    81   119   120    2
    82   114   113    1
    83   114   116   ar
    84    25    27    1
    85    25    24    1
    86    21    24    1
    87    21    20    1
    88   108   106    1
    89    72    73    1
    90   107   106    1
    91    76    73    1
    92   106   105    1
    93    73    74    1
    94    89    88   ar
    95    75    74    2
    96   100    98   ar
    97   100    99   ar
    98   105   102    1
    99    90    88   ar
   100    88    87    1
   101    98    96   ar
   102    99    97   ar
   103   102   101    1
   104   102   103    1
   105    87    86    1
   106   104   103    2
   107    97    96   ar
   108    96    95    1
   109    86    83    1
   110    91    92    1
   111    95    92    1
   112    83    82    1
   113    83    84    1
   114    84    85    2
   115    92    93    1
   116    93    94    2
