@<TRIPOS>MOLECULE
tmp/2iaeF00.pdb
 187 184 0 0 0
SMALL
GASTEIGER

@<TRIPOS>ATOM
      1  N        200.5530  169.7620   88.3700 N.3   114  ASN114     -0.1225
      2  CA       201.4380  170.6480   89.1570 C.3   114  ASN114      0.1785
      3  C        201.2270  170.5610   90.6770 C.2   114  ASN114      0.2597
      4  O        202.1260  170.9030   91.4570 O.2   114  ASN114     -0.2718
      5  CB       201.3300  172.1120   88.6910 C.3   114  ASN114      0.1169
      6  CG       199.9520  172.7170   88.9410 C.2   114  ASN114      0.2627
      7  OD1      199.8230  173.7950   89.5310 O.2   114  ASN114     -0.2716
      8  ND2      198.9190  172.0350   88.4780 N.am  114  ASN114     -0.0877
      9  N        200.0460  170.1000   91.0900 N.am  115  HIS115     -0.1975
     10  CA       199.7710  169.9210   92.5020 C.3   115  HIS115      0.1656
     11  C        200.2150  168.5880   93.0610 C.2   115  HIS115      0.2291
     12  O        200.4120  168.4870   94.2760 O.2   115  HIS115     -0.2864
     13  CB       198.3010  170.1320   92.8170 C.3   115  HIS115      0.0771
     14  CG       197.9300  171.5620   92.9980 C.ar  115  HIS115      0.0820
     15  ND1      198.0420  172.4920   91.9890 N.ar  115  HIS115     -0.2267
     16  CD2      197.4340  172.2230   94.0640 C.ar  115  HIS115      0.1154
     17  CE1      197.6300  173.6670   92.4270 C.ar  115  HIS115      0.1986
     18  NE2      197.2530  173.5300   93.6850 N.ar  115  HIS115     -0.2212
     19  N        202.5420  166.9500   94.1420 N.3   117  SER117     -0.1217
     20  CA       203.9280  167.2110   94.4510 C.3   117  SER117      0.1889
     21  C        204.1230  167.4200   95.9310 C.2   117  SER117      0.2288
     22  O        203.4640  168.2580   96.5430 O.2   117  SER117     -0.2866
     23  CB       204.4180  168.4570   93.7090 C.3   117  SER117      0.2089
     24  OG       204.3180  169.6010   94.5440 O.3   117  SER117     -0.2183
     25  N        206.0710  169.1230   97.4990 N.3   119  GLN119     -0.1231
     26  CA       206.3120  170.4910   97.9460 C.3   119  GLN119      0.1698
     27  C        205.0570  171.3440   97.9130 C.2   119  GLN119      0.2592
     28  O        204.7040  171.9600   98.9230 O.2   119  GLN119     -0.2718
     29  CB       207.4290  171.1510   97.1540 C.3   119  GLN119      0.0381
     30  CG       208.1330  172.2240   97.9460 C.3   119  GLN119      0.0905
     31  CD       208.2580  173.5020   97.1600 C.2   119  GLN119      0.2608
     32  OE1      208.6040  173.4890   95.9710 O.2   119  GLN119     -0.2717
     33  NE2      207.9630  174.6280   97.8150 N.am  119  GLN119     -0.0878
     34  N        204.3980  171.3750   96.7520 N.am  120  ILE120     -0.1980
     35  CA       203.1010  172.0510   96.5910 C.3   120  ILE120      0.1595
     36  C        202.1060  171.5010   97.6240 C.2   120  ILE120      0.2287
     37  O        201.5660  172.2610   98.4350 O.2   120  ILE120     -0.2864
     38  CB       202.5530  171.9260   95.1190 C.3   120  ILE120      0.0276
     39  CG1      203.4820  172.6260   94.1290 C.3   120  ILE120      0.0022
     40  CG2      201.1450  172.4760   94.9830 C.3   120  ILE120      0.0022
     41  CD1      203.9090  174.0170   94.5500 C.3   120  ILE120      0.0001
     42  N        201.9400  172.8170  100.9740 N.3   123  VAL123     -0.1231
     43  CA       201.8010  174.2630  101.1110 C.3   123  VAL123      0.1692
     44  C        200.3530  174.6870  100.9350 C.2   123  VAL123      0.2592
     45  O        199.8390  175.5260  101.6880 O.2   123  VAL123     -0.2718
     46  CB       202.7340  175.0010  100.1230 C.3   123  VAL123      0.0266
     47  CG1      202.2720  176.4430   99.8730 C.3   123  VAL123      0.0020
     48  CG2      204.1900  174.9620  100.6300 C.3   123  VAL123      0.0020
     49  N        199.7040  174.0930   99.9390 N.am  124  TYR124     -0.1976
     50  CA       198.2750  174.2830   99.7350 C.3   124  TYR124      0.1639
     51  C        197.4840  173.2660  100.5730 C.2   124  TYR124      0.2290
     52  O        197.7050  173.2040  101.7880 O.2   124  TYR124     -0.2864
     53  CB       197.9450  174.3820   98.2410 C.3   124  TYR124      0.0560
     54  CG       198.6230  175.6200   97.6470 C.ar  124  TYR124     -0.0198
     55  CD1      198.3560  176.8920   98.1650 C.ar  124  TYR124     -0.0009
     56  CD2      199.5600  175.5220   96.6140 C.ar  124  TYR124     -0.0009
     57  CE1      198.9840  178.0480   97.6570 C.ar  124  TYR124      0.0417
     58  CE2      200.1960  176.6760   96.0930 C.ar  124  TYR124      0.0417
     59  CZ       199.9000  177.9390   96.6270 C.ar  124  TYR124      0.1957
     60  OH       200.4980  179.0910   96.1490 O.3   124  TYR124     -0.2866
     61  N        209.9470  163.5510   92.0990 N.3   185  GLU185     -0.1231
     62  CA       209.1540  164.6890   92.5480 C.3   185  GLU185      0.1699
     63  C        209.3840  165.8140   91.5630 C.2   185  GLU185      0.2592
     64  O        210.5280  166.0810   91.1970 O.2   185  GLU185     -0.2718
     65  CB       209.5880  165.1370   93.9390 C.3   185  GLU185      0.0402
     66  CG       209.2200  166.5890   94.2940 C.3   185  GLU185      0.1161
     67  CD       207.7430  166.7890   94.6350 C.2   185  GLU185      0.3649
     68  OE1      206.9560  165.8150   94.5370 O.co2 185  GLU185     -0.2457
     69  OE2      207.3740  167.9280   95.0160 O.co2 185  GLU185     -0.2457
     70  N        208.3030  166.4730   91.1480 N.am  186  VAL186     -0.1966
     71  CA       208.3580  167.5300   90.1300 C.3   186  VAL186      0.1712
     72  C        209.4290  168.5910   90.4190 C.2   186  VAL186      0.2458
     73  O        209.3960  169.2450   91.4650 O.2   186  VAL186     -0.2730
     74  CB       206.9700  168.1790   89.9370 C.3   186  VAL186      0.0289
     75  CG1      207.0740  169.5000   89.1800 C.3   186  VAL186      0.0023
     76  CG2      206.0560  167.2110   89.1940 C.3   186  VAL186      0.0023
     77  N        210.4010  168.7430   89.5050 N.am  187  PRO187     -0.2716
     78  CA       211.4940  169.6950   89.6670 C.3   187  PRO187      0.1536
     79  C        211.0270  171.1380   89.5390 C.2   187  PRO187      0.2598
     80  O        209.9480  171.3850   89.0120 O.2   187  PRO187     -0.2715
     81  CB       212.4370  169.3450   88.5080 C.3   187  PRO187      0.0310
     82  CG       212.0280  167.9900   88.0720 C.3   187  PRO187      0.0237
     83  CD       210.5490  167.9720   88.2670 C.3   187  PRO187      0.0939
     84  N        211.8360  172.0750   90.0300 N.am  188  HIS188     -0.1974
     85  CA       211.5610  173.4950   89.8590 C.3   188  HIS188      0.1656
     86  C        211.8650  173.9570   88.4330 C.2   188  HIS188      0.2291
     87  O        211.0740  174.6770   87.8290 O.2   188  HIS188     -0.2864
     88  CB       212.3650  174.3310   90.8500 C.3   188  HIS188      0.0771
     89  CG       212.0200  174.0850   92.2860 C.ar  188  HIS188      0.0820
     90  ND1      212.7420  174.6350   93.3250 N.ar  188  HIS188     -0.2267
     91  CD2      211.0420  173.3450   92.8580 C.ar  188  HIS188      0.1154
     92  CE1      212.2160  174.2530   94.4750 C.ar  188  HIS188      0.1986
     93  NE2      211.1840  173.4680   94.2200 N.ar  188  HIS188     -0.2212
     94  N        208.9530  169.6090   84.6340 N.3   193  CYS193     -0.1235
     95  CA       208.2900  170.7270   85.2870 C.3   193  CYS193      0.1677
     96  C        207.4790  171.5430   84.2910 C.2   193  CYS193      0.2270
     97  O        206.2560  171.6680   84.4470 O.2   193  CYS193     -0.2867
     98  CB       209.3210  171.6240   85.9630 C.3   193  CYS193      0.0956
     99  SG       208.6590  173.1690   86.5660 S.3   193  CYS193     -0.0801
    100  N        203.5120  173.0790   84.2910 N.3   197  TRP197     -0.1241
    101  CA       203.4110  174.3600   85.0320 C.3   197  TRP197      0.1605
    102  C        203.0320  175.5120   84.1180 C.2   197  TRP197      0.2264
    103  O        202.3890  176.4730   84.5550 O.2   197  TRP197     -0.2867
    104  CB       204.6840  174.7060   85.8390 C.3   197  TRP197      0.0550
    105  CG       204.6420  174.2250   87.2720 C.ar  197  TRP197      0.0003
    106  CD1      205.1660  173.0690   87.7530 C.ar  197  TRP197      0.0946
    107  CD2      204.0240  174.8740   88.3940 C.ar  197  TRP197      0.0152
    108  NE1      204.9140  172.9480   89.0990 N.ar  197  TRP197     -0.2442
    109  CE2      204.2190  174.0470   89.5180 C.ar  197  TRP197      0.0810
    110  CE3      203.3300  176.0740   88.5600 C.ar  197  TRP197      0.0012
    111  CZ2      203.7550  174.3810   90.7840 C.ar  197  TRP197      0.0191
    112  CZ3      202.8640  176.4040   89.8320 C.ar  197  TRP197      0.0001
    113  CH2      203.0850  175.5600   90.9220 C.ar  197  TRP197      0.0015
    114  N        204.4060  183.9210   85.1410 N.3   210  PRO210     -0.2102
    115  CA       204.1890  184.6700   86.3820 C.3   210  PRO210      0.1504
    116  C        204.0200  183.7480   87.5980 C.2   210  PRO210      0.2576
    117  O        204.1800  184.2050   88.7270 O.2   210  PRO210     -0.2718
    118  CB       202.9220  185.4700   86.0980 C.3   210  PRO210      0.0282
    119  CG       202.1710  184.5870   85.1540 C.3   210  PRO210      0.0208
    120  CD       203.1820  183.8330   84.3280 C.3   210  PRO210      0.0893
    121  N        203.7380  182.4670   87.3650 N.am  211  ARG211     -0.1966
    122  CA       203.6880  181.4890   88.4380 C.3   211  ARG211      0.1729
    123  C        205.0130  181.3880   89.1420 C.2   211  ARG211      0.2617
    124  O        205.0680  181.4120   90.3650 O.2   211  ARG211     -0.2715
    125  CB       203.3530  180.1160   87.9010 C.3   211  ARG211      0.0348
    126  CG       201.8950  179.8990   87.6030 C.3   211  ARG211      0.0492
    127  CD       201.7780  178.7290   86.6430 C.3   211  ARG211      0.2205
    128  NE       200.4290  178.4300   86.1690 N.pl3 211  ARG211     -0.0865
    129  CZ       199.2940  178.7500   86.7810 C.cat 211  ARG211      0.5346
    130  NH1      199.2940  179.4050   87.9490 N.pl3 211  ARG211      0.1354
    131  NH2      198.1490  178.3910   86.2080 N.pl3 211  ARG211      0.1354
    132  N        206.0820  181.2560   88.3650 N.am  212  GLY212     -0.1940
    133  CA       207.4290  181.1840   88.9300 C.3   212  GLY212      0.2014
    134  C        208.0120  179.8070   88.7280 C.2   212  GLY212      0.2638
    135  O        208.8600  179.3470   89.4970 O.2   212  GLY212     -0.2714
    136  N        207.5300  179.1560   87.6790 N.am  213  ALA213     -0.1977
    137  CA       208.0070  177.8640   87.2430 C.3   213  ALA213      0.1597
    138  C        207.2900  177.6720   85.9420 C.2   213  ALA213      0.2287
    139  O        206.1070  178.0010   85.8420 O.2   213  ALA213     -0.2864
    140  CB       207.5890  176.7930   88.2150 C.3   213  ALA213      0.0319
    141  N        195.0960  173.0500   84.2310 N.3   238  HIS238     -0.1241
    142  CA       196.0820  173.7980   85.0310 C.3   238  HIS238      0.1621
    143  C        195.7140  175.2470   85.3110 C.2   238  HIS238      0.2264
    144  O        196.1650  175.8150   86.3060 O.2   238  HIS238     -0.2867
    145  CB       197.4780  173.7390   84.3690 C.3   238  HIS238      0.0745
    146  CG       198.5760  174.3590   85.1880 C.ar  238  HIS238      0.0817
    147  ND1      198.6700  175.7180   85.4150 N.ar  238  HIS238     -0.2268
    148  CD2      199.6350  173.8030   85.8270 C.ar  238  HIS238      0.1154
    149  CE1      199.7290  175.9680   86.1640 C.ar  238  HIS238      0.1986
    150  NE2      200.3330  174.8260   86.4280 N.ar  238  HIS238     -0.2212
    151  N        192.6300  178.1830   85.5360 N.3   240  LEU240     -0.1245
    152  CA       191.1690  178.2980   85.7150 C.3   240  LEU240      0.1561
    153  C        190.5870  179.2030   84.6610 C.2   240  LEU240      0.2260
    154  O        191.0040  180.3600   84.5250 O.2   240  LEU240     -0.2867
    155  CB       190.7440  178.7810   87.1190 C.3   240  LEU240      0.0270
    156  CG       189.9780  180.1060   87.3540 C.3   240  LEU240      0.0019
    157  CD1      188.5930  180.1090   86.7380 C.3   240  LEU240      0.0001
    158  CD2      189.8440  180.3920   88.8350 C.3   240  LEU240      0.0001
    159  N        188.6450  173.0390   82.4280 N.3   257  PHE257     -0.1241
    160  CA       188.7010  173.1470   83.8730 C.3   257  PHE257      0.1605
    161  C        187.4650  172.5080   84.4930 C.2   257  PHE257      0.2264
    162  O        186.3380  172.9160   84.2100 O.2   257  PHE257     -0.2867
    163  CB       188.8180  174.6090   84.2660 C.3   257  PHE257      0.0534
    164  CG       189.4750  174.8330   85.5900 C.ar  257  PHE257     -0.0203
    165  CD1      188.7130  175.1470   86.7150 C.ar  257  PHE257     -0.0042
    166  CD2      190.8620  174.7500   85.7160 C.ar  257  PHE257     -0.0042
    167  CE1      189.3290  175.3750   87.9530 C.ar  257  PHE257     -0.0003
    168  CE2      191.4870  174.9660   86.9560 C.ar  257  PHE257     -0.0003
    169  CZ       190.7220  175.2770   88.0730 C.ar  257  PHE257     -0.0000
    170  N        187.3980  176.6990   95.1650 N.3   264  TYR264     -0.1241
    171  CA       187.6620  177.3790   93.9030 C.3   264  TYR264      0.1605
    172  C        186.4920  178.3330   93.7940 C.2   264  TYR264      0.2264
    173  O        185.5240  178.0930   93.0620 O.2   264  TYR264     -0.2867
    174  CB       187.8460  176.4800   92.6920 C.3   264  TYR264      0.0534
    175  CG       189.3150  176.3390   92.3750 C.ar  264  TYR264     -0.0201
    176  CD1      190.1160  177.4690   92.1640 C.ar  264  TYR264     -0.0009
    177  CD2      189.9210  175.0820   92.3280 C.ar  264  TYR264     -0.0009
    178  CE1      191.4810  177.3480   91.8950 C.ar  264  TYR264      0.0417
    179  CE2      191.2860  174.9490   92.0590 C.ar  264  TYR264      0.0417
    180  CZ       192.0580  176.0820   91.8420 C.ar  264  TYR264      0.1957
    181  OH       193.3990  175.9230   91.5720 O.3   264  TYR264     -0.2866
    182  N        186.2860  182.0070   93.5380 N.3   266  CYS266     -0.1235
    183  CA       186.1460  182.7340   92.2990 C.3   266  CYS266      0.1677
    184  C        185.1050  182.0130   91.4510 C.2   266  CYS266      0.2270
    185  O        185.3700  180.9380   90.9040 O.2   266  CYS266     -0.2867
    186  CB       187.4960  182.7000   91.5990 C.3   266  CYS266      0.0956
    187  SG       188.4260  181.2180   92.0470 S.3   266  CYS266     -0.0801
@<TRIPOS>BOND
     1   159   160    1
     2   160   163    1
     3   160   161    1
     4   102   103    2
     5   102   101    1
     6   162   161    2
     7   141   142    1
     8   163   164    1
     9    96    97    2
    10    96    95    1
    11   100   101    1
    12   120   114    1
    13   120   119    1
    14   145   142    1
    15   145   146    1
    16   154   153    2
    17    94    95    1
    18   153   152    1
    19   142   143    1
    20   101   104    1
    21   114   115    1
    22   119   118    1
    23   146   147   ar
    24   146   148   ar
    25    95    98    1
    26   143   144    2
    27   147   149   ar
    28   151   152    1
    29   164   166   ar
    30   164   165   ar
    31   152   155    1
    32   166   168   ar
    33   148   150   ar
    34   104   105    1
    35   139   138    2
    36   138   137    1
    37    98    99    1
    38   118   115    1
    39   149   150   ar
    40   128   127    1
    41   128   129    2
    42   131   129    1
    43   115   116    1
    44   127   126    1
    45   165   167   ar
    46   157   156    1
    47   129   130    1
    48   168   169   ar
    49   155   156    1
    50   137   136    1
    51   137   140    1
    52   105   106   ar
    53   105   107   ar
    54   156   158    1
    55   121   116   am
    56   121   122    1
    57   116   117    2
    58   126   125    1
    59   136   134   am
    60   106   108   ar
    61    87    86    2
    62   125   122    1
    63   167   169   ar
    64    82    83    1
    65    82    81    1
    66    83    77    1
    67   132   133    1
    68   132   123   am
    69     1     2    1
    70   107   110   ar
    71   107   109   ar
    72    86    85    1
    73   122   123    1
    74     8     6   am
    75    81    78    1
    76   110   112   ar
    77     5     6    1
    78     5     2    1
    79   134   133    1
    80   134   135    2
    81     6     7    2
    82    80    79    2
    83   108   109   ar
    84   123   124    2
    85     2     3    1
    86    75    74    1
    87    76    74    1
    88    77    78    1
    89    77    72   am
    90   109   111   ar
    91    79    78    1
    92    79    84   am
    93   112   113   ar
    94    85    84    1
    95    85    88    1
    96    74    71    1
    97    71    72    1
    98    71    70    1
    99    72    73    2
   100     3     9   am
   101     3     4    2
   102   111   113   ar
   103    88    89    1
   104   185   184    2
   105     9    10    1
   106    70    63   am
   107    64    63    2
   108   184   183    1
   109    63    62    1
   110   181   180    1
   111   186   187    1
   112   186   183    1
   113   180   178   ar
   114   180   179   ar
   115   178   176   ar
   116    15    17   ar
   117    15    14   ar
   118   179   177   ar
   119    61    62    1
   120   176   175   ar
   121    89    91   ar
   122    89    90   ar
   123   183   182    1
   124   177   175   ar
   125   175   174    1
   126    17    18   ar
   127    10    13    1
   128    10    11    1
   129    62    65    1
   130   174   171    1
   131    13    14    1
   132    91    93   ar
   133    14    16   ar
   134    11    12    2
   135   173   172    2
   136    90    92   ar
   137    18    16   ar
   138    23    20    1
   139    23    24    1
   140   172   171    1
   141   171   170    1
   142    65    66    1
   143    39    41    1
   144    39    38    1
   145    19    20    1
   146    93    92   ar
   147    66    67    1
   148    20    21    1
   149    68    67   ar
   150    67    69   ar
   151    40    38    1
   152    38    35    1
   153    21    22    2
   154    32    31    2
   155    58    56   ar
   156    58    59   ar
   157    60    59    1
   158    35    34    1
   159    35    36    1
   160    56    54   ar
   161    59    57   ar
   162    34    27   am
   163    29    26    1
   164    29    30    1
   165    31    33   am
   166    31    30    1
   167    25    26    1
   168    36    37    2
   169    54    55   ar
   170    54    53    1
   171    57    55   ar
   172    27    26    1
   173    27    28    2
   174    53    50    1
   175    50    49    1
   176    50    51    1
   177    47    46    1
   178    49    44   am
   179    46    48    1
   180    46    43    1
   181    51    52    2
   182    44    43    1
   183    44    45    2
   184    42    43    1
