@<TRIPOS>MOLECULE
tmp/2iahA00.pdb
 227 226 0 0 0
SMALL
GASTEIGER

@<TRIPOS>ATOM
      1  N          0.3820   30.6700  121.7450 N.3   141  ARG141     -0.1245
      2  CA        -0.9100   31.3710  121.7940 C.3   141  ARG141      0.1563
      3  C         -2.0700   30.4060  122.0420 C.2   141  ARG141      0.2260
      4  O         -2.2320   29.4290  121.3080 O.2   141  ARG141     -0.2867
      5  CB        -1.1670   32.1010  120.4730 C.3   141  ARG141      0.0307
      6  CG        -0.7060   33.5460  120.4140 C.3   141  ARG141      0.0489
      7  CD        -0.7470   34.0900  118.9810 C.3   141  ARG141      0.2205
      8  NE        -1.8860   33.5820  118.2150 N.pl3 141  ARG141     -0.0865
      9  CZ        -2.3440   34.1180  117.0870 C.cat 141  ARG141      0.5346
     10  NH1       -1.7730   35.2010  116.5730 N.pl3 141  ARG141      0.1354
     11  NH2       -3.3860   33.5730  116.4720 N.pl3 141  ARG141      0.1354
     12  N        -11.2570   38.0000  127.2050 N.3   152  ASN152     -0.1240
     13  CA       -10.3250   39.0900  126.8980 C.3   152  ASN152      0.1653
     14  C         -9.9810   39.9860  128.0920 C.2   152  ASN152      0.2266
     15  O         -9.2450   40.9710  127.9460 O.2   152  ASN152     -0.2867
     16  CB       -10.8600   39.9480  125.7520 C.3   152  ASN152      0.1155
     17  CG       -10.3470   39.5080  124.3890 C.2   152  ASN152      0.2627
     18  OD1      -10.9590   39.8170  123.3560 O.2   152  ASN152     -0.2716
     19  ND2       -9.2160   38.8000  124.3740 N.am  152  ASN152     -0.0877
     20  N         -5.3670   44.1310  124.2460 N.3   164  ARG164     -0.1231
     21  CA        -6.5070   43.2250  124.0850 C.3   164  ARG164      0.1694
     22  C         -6.5570   42.4560  122.7620 C.2   164  ARG164      0.2592
     23  O         -7.2110   41.4160  122.6750 O.2   164  ARG164     -0.2718
     24  CB        -7.8170   44.0010  124.2780 C.3   164  ARG164      0.0321
     25  CG        -8.0690   44.4780  125.7110 C.3   164  ARG164      0.0489
     26  CD        -9.3730   45.2700  125.8400 C.3   164  ARG164      0.2205
     27  NE       -10.5170   44.5530  125.2740 N.pl3 164  ARG164     -0.0865
     28  CZ       -11.2510   43.6490  125.9210 C.cat 164  ARG164      0.5346
     29  NH1      -10.9830   43.3300  127.1820 N.pl3 164  ARG164      0.1354
     30  NH2      -12.2680   43.0650  125.3020 N.pl3 164  ARG164      0.1354
     31  N         -5.8820   42.9750  121.7400 N.am  165  ASN165     -0.1960
     32  CA        -5.8800   42.3700  120.4060 C.3   165  ASN165      0.1819
     33  C         -4.9550   41.1500  120.3210 C.2   165  ASN165      0.2621
     34  O         -3.7310   41.2890  120.2710 O.2   165  ASN165     -0.2715
     35  CB        -5.4850   43.4240  119.3690 C.3   165  ASN165      0.1195
     36  CG        -5.9780   43.0940  117.9760 C.2   165  ASN165      0.2630
     37  OD1       -5.6350   42.0530  117.4120 O.2   165  ASN165     -0.2716
     38  ND2       -6.7750   43.9970  117.4020 N.am  165  ASN165     -0.0877
     39  N         -5.5530   39.9580  120.2990 N.am  166  VAL166     -0.1963
     40  CA        -4.7980   38.6940  120.3370 C.3   166  VAL166      0.1727
     41  C         -4.0100   38.4260  119.0520 C.2   166  VAL166      0.2617
     42  O         -3.1630   37.5250  119.0030 O.2   166  VAL166     -0.2715
     43  CB        -5.6930   37.4710  120.6900 C.3   166  VAL166      0.0290
     44  CG1       -6.3800   37.6820  122.0330 C.3   166  VAL166      0.0023
     45  CG2       -6.7140   37.1920  119.5920 C.3   166  VAL166      0.0023
     46  N         -4.2980   39.2140  118.0190 N.am  167  GLY167     -0.1940
     47  CA        -3.5020   39.2070  116.8000 C.3   167  GLY167      0.2014
     48  C         -2.0960   39.7100  117.0610 C.2   167  GLY167      0.2638
     49  O         -1.2050   39.5240  116.2360 O.2   167  GLY167     -0.2714
     50  N         -1.9070   40.3500  118.2140 N.am  168  TYR168     -0.1973
     51  CA        -0.6010   40.8560  118.6380 C.3   168  TYR168      0.1639
     52  C         -0.3290   40.4900  120.1100 C.2   168  TYR168      0.2290
     53  O         -0.1150   41.3650  120.9570 O.2   168  TYR168     -0.2864
     54  CB        -0.5150   42.3740  118.4230 C.3   168  TYR168      0.0560
     55  CG        -1.0400   42.8640  117.0840 C.ar  168  TYR168     -0.0198
     56  CD1       -2.3890   43.1940  116.9180 C.ar  168  TYR168     -0.0009
     57  CD2       -0.1890   43.0090  115.9860 C.ar  168  TYR168     -0.0009
     58  CE1       -2.8780   43.6480  115.6900 C.ar  168  TYR168      0.0417
     59  CE2       -0.6690   43.4620  114.7570 C.ar  168  TYR168      0.0417
     60  CZ        -2.0130   43.7810  114.6170 C.ar  168  TYR168      0.1957
     61  OH        -2.4950   44.2350  113.4080 O.3   168  TYR168     -0.2866
     62  N          2.6740   29.0470  113.3830 N.3   299  TRP299     -0.1227
     63  CA         1.6770   30.0600  113.0520 C.3   299  TRP299      0.1737
     64  C          0.4810   29.4160  112.3600 C.2   299  TRP299      0.2596
     65  O          0.6480   28.5930  111.4590 O.2   299  TRP299     -0.2718
     66  CB         2.3030   31.1460  112.1710 C.3   299  TRP299      0.0564
     67  CG         1.5560   32.4560  112.1510 C.ar  299  TRP299      0.0003
     68  CD1        0.6200   32.8910  113.0520 C.ar  299  TRP299      0.0946
     69  CD2        1.7180   33.5160  111.2010 C.ar  299  TRP299      0.0152
     70  NE1        0.1760   34.1420  112.7060 N.ar  299  TRP299     -0.2442
     71  CE2        0.8340   34.5530  111.5770 C.ar  299  TRP299      0.0810
     72  CE3        2.5180   33.6870  110.0620 C.ar  299  TRP299      0.0012
     73  CZ2        0.7250   35.7460  110.8520 C.ar  299  TRP299      0.0191
     74  CZ3        2.4090   34.8760  109.3410 C.ar  299  TRP299      0.0001
     75  CH2        1.5180   35.8880  109.7410 C.ar  299  TRP299      0.0015
     76  N         -0.7170   29.7900  112.8040 N.am  300  SER300     -0.1952
     77  CA        -1.9760   29.2280  112.3050 C.3   300  SER300      0.1924
     78  C         -2.0190   27.6980  112.4070 C.2   300  SER300      0.2314
     79  O         -2.1420   27.0100  111.3910 O.2   300  SER300     -0.2863
     80  CB        -2.2410   29.6800  110.8630 C.3   300  SER300      0.2116
     81  OG        -2.3100   31.0900  110.7680 O.3   300  SER300     -0.2180
     82  N          7.8560   34.1120  118.2640 N.3   328  TRP328     -0.1241
     83  CA         6.8390   35.0470  118.7520 C.3   328  TRP328      0.1605
     84  C          7.1940   35.5530  120.1520 C.2   328  TRP328      0.2264
     85  O          6.6430   35.0830  121.1510 O.2   328  TRP328     -0.2867
     86  CB         5.4330   34.4240  118.7410 C.3   328  TRP328      0.0550
     87  CG         4.3270   35.4620  118.7280 C.ar  328  TRP328      0.0003
     88  CD1        4.2240   36.5570  119.5410 C.ar  328  TRP328      0.0946
     89  CD2        3.1780   35.4980  117.8670 C.ar  328  TRP328      0.0152
     90  NE1        3.0920   37.2730  119.2360 N.ar  328  TRP328     -0.2442
     91  CE2        2.4300   36.6470  118.2140 C.ar  328  TRP328      0.0810
     92  CE3        2.7080   34.6730  116.8380 C.ar  328  TRP328      0.0012
     93  CZ2        1.2390   36.9970  117.5690 C.ar  328  TRP328      0.0191
     94  CZ3        1.5190   35.0200  116.1940 C.ar  328  TRP328      0.0001
     95  CH2        0.8030   36.1770  116.5610 C.ar  328  TRP328      0.0015
     96  N          1.7240   27.6590  105.4770 N.3   368  MET368     -0.1230
     97  CA         0.2660   27.7710  105.4720 C.3   368  MET368      0.1702
     98  C         -0.3100   27.7980  104.0570 C.2   368  MET368      0.2592
     99  O          0.3650   28.1920  103.1010 O.2   368  MET368     -0.2718
    100  CB        -0.2320   28.9450  106.3260 C.3   368  MET368      0.0401
    101  CG         0.0180   30.3310  105.7620 C.3   368  MET368      0.0596
    102  SD        -0.7180   31.6510  106.7670 S.3   368  MET368     -0.1393
    103  CE         0.1850   31.4730  108.3060 C.3   368  MET368      0.0692
    104  N         -1.5630   27.3670  103.9440 N.am  369  GLY369     -0.1957
    105  CA        -2.2040   27.1500  102.6550 C.3   369  GLY369      0.1869
    106  C         -2.4440   25.6700  102.4350 C.2   369  GLY369      0.2309
    107  O         -2.0260   24.8370  103.2430 O.2   369  GLY369     -0.2863
    108  N          4.5060   31.3120  104.3730 N.3   381  VAL381     -0.1245
    109  CA         4.0920   32.7090  104.4930 C.3   381  VAL381      0.1561
    110  C          4.8920   33.3430  105.6260 C.2   381  VAL381      0.2260
    111  O          4.8240   32.8940  106.7730 O.2   381  VAL381     -0.2867
    112  CB         2.5620   32.8480  104.7190 C.3   381  VAL381      0.0252
    113  CG1        2.1840   34.2790  105.0830 C.3   381  VAL381      0.0019
    114  CG2        1.8050   32.4040  103.4780 C.3   381  VAL381      0.0019
    115  N          5.8990   36.8280  107.6660 N.3   383  GLN383     -0.1245
    116  CA         5.5750   38.2060  108.0360 C.3   383  GLN383      0.1566
    117  C          6.2060   38.5710  109.3740 C.2   383  GLN383      0.2260
    118  O          6.6520   37.6920  110.1100 O.2   383  GLN383     -0.2867
    119  CB         4.0610   38.4120  108.0620 C.3   383  GLN383      0.0367
    120  CG         3.4690   38.5150  106.6710 C.3   383  GLN383      0.0905
    121  CD         1.9670   38.3500  106.6400 C.2   383  GLN383      0.2608
    122  OE1        1.2650   38.7320  107.5800 O.2   383  GLN383     -0.2717
    123  NE2        1.4590   37.7850  105.5460 N.am  383  GLN383     -0.0878
    124  N          5.8220   41.1990  112.8830 N.3   385  TYR385     -0.1241
    125  CA         4.9890   42.0830  113.6890 C.3   385  TYR385      0.1605
    126  C          5.7220   42.5050  114.9550 C.2   385  TYR385      0.2264
    127  O          6.0130   41.6730  115.8250 O.2   385  TYR385     -0.2867
    128  CB         3.6720   41.3830  114.0530 C.3   385  TYR385      0.0534
    129  CG         2.8230   41.0240  112.8550 C.ar  385  TYR385     -0.0201
    130  CD1        1.8950   41.9270  112.3400 C.ar  385  TYR385     -0.0009
    131  CD2        2.9550   39.7850  112.2290 C.ar  385  TYR385     -0.0009
    132  CE1        1.1170   41.6050  111.2380 C.ar  385  TYR385      0.0417
    133  CE2        2.1850   39.4560  111.1250 C.ar  385  TYR385      0.0417
    134  CZ         1.2680   40.3680  110.6370 C.ar  385  TYR385      0.1957
    135  OH         0.4990   40.0460  109.5430 O.3   385  TYR385     -0.2866
    136  N          4.8910   42.9530  105.5670 N.3   428  TRP428     -0.1241
    137  CA         4.5400   41.8490  104.6670 C.3   428  TRP428      0.1605
    138  C          4.9260   42.1110  103.2020 C.2   428  TRP428      0.2264
    139  O          4.7510   41.2410  102.3410 O.2   428  TRP428     -0.2867
    140  CB         3.0670   41.4280  104.8140 C.3   428  TRP428      0.0550
    141  CG         2.0450   42.4330  104.3770 C.ar  428  TRP428      0.0003
    142  CD1        1.7170   42.7660  103.0950 C.ar  428  TRP428      0.0946
    143  CD2        1.1870   43.2080  105.2230 C.ar  428  TRP428      0.0152
    144  NE1        0.7220   43.7150  103.0880 N.ar  428  TRP428     -0.2442
    145  CE2        0.3760   44.0030  104.3810 C.ar  428  TRP428      0.0810
    146  CE3        1.0310   43.3170  106.6110 C.ar  428  TRP428      0.0012
    147  CZ2       -0.5770   44.8970  104.8830 C.ar  428  TRP428      0.0191
    148  CZ3        0.0780   44.2080  107.1100 C.ar  428  TRP428      0.0001
    149  CH2       -0.7110   44.9840  106.2460 C.ar  428  TRP428      0.0015
    150  N          2.1680   48.3770  107.2170 N.3   457  GLN457     -0.1245
    151  CA         1.1560   49.1180  107.9620 C.3   457  GLN457      0.1566
    152  C          1.7370   49.6330  109.2750 C.2   457  GLN457      0.2260
    153  O          2.5000   48.9320  109.9450 O.2   457  GLN457     -0.2867
    154  CB        -0.0830   48.2410  108.2150 C.3   457  GLN457      0.0367
    155  CG        -0.9700   48.7020  109.3790 C.3   457  GLN457      0.0905
    156  CD        -2.4370   48.3310  109.2170 C.2   457  GLN457      0.2608
    157  OE1       -3.0020   47.6200  110.0490 O.2   457  GLN457     -0.2717
    158  NE2       -3.0640   48.8220  108.1500 N.am  457  GLN457     -0.0878
    159  N        -14.1530   47.3550  117.1660 N.3   534  ASP534     -0.1239
    160  CA       -12.9310   47.7420  116.4720 C.3   534  ASP534      0.1674
    161  C        -13.2200   48.3500  115.1010 C.2   534  ASP534      0.2266
    162  O        -14.2080   48.0110  114.4460 O.2   534  ASP534     -0.2867
    163  CB       -11.9760   46.5540  116.3360 C.3   534  ASP534      0.1410
    164  CG       -11.0480   46.4070  117.5280 C.2   534  ASP534      0.3668
    165  OD1      -11.0100   47.3190  118.3870 O.co2 534  ASP534     -0.2456
    166  OD2      -10.3490   45.3740  117.6020 O.co2 534  ASP534     -0.2456
    167  N        -12.5760   48.1290  111.9480 N.3   536  TRP536     -0.1227
    168  CA       -12.9410   47.4510  110.6980 C.3   536  TRP536      0.1737
    169  C        -14.3000   46.7460  110.7030 C.2   536  TRP536      0.2595
    170  O        -14.7440   46.2740  109.6550 O.2   536  TRP536     -0.2718
    171  CB       -11.8310   46.5000  110.2320 C.3   536  TRP536      0.0564
    172  CG       -11.2910   45.6650  111.3190 C.ar  536  TRP536      0.0003
    173  CD1      -11.8050   44.4900  111.7770 C.ar  536  TRP536      0.0946
    174  CD2      -10.1320   45.9380  112.1110 C.ar  536  TRP536      0.0152
    175  NE1      -11.0370   44.0110  112.8070 N.ar  536  TRP536     -0.2442
    176  CE2      -10.0020   44.8800  113.0340 C.ar  536  TRP536      0.0810
    177  CE3       -9.1890   46.9750  112.1300 C.ar  536  TRP536      0.0012
    178  CZ2       -8.9630   44.8250  113.9740 C.ar  536  TRP536      0.0191
    179  CZ3       -8.1560   46.9210  113.0620 C.ar  536  TRP536      0.0001
    180  CH2       -8.0530   45.8520  113.9710 C.ar  536  TRP536      0.0015
    181  N        -14.9530   46.6620  111.8620 N.am  537  TYR537     -0.1976
    182  CA       -16.3010   46.0810  111.9270 C.3   537  TYR537      0.1639
    183  C        -17.3760   47.1120  111.5500 C.2   537  TYR537      0.2290
    184  O        -17.9100   47.8250  112.4080 O.2   537  TYR537     -0.2864
    185  CB       -16.5950   45.4570  113.3000 C.3   537  TYR537      0.0560
    186  CG       -15.7280   44.2730  113.6850 C.ar  537  TYR537     -0.0198
    187  CD1      -15.2840   43.3590  112.7300 C.ar  537  TYR537     -0.0009
    188  CD2      -15.3790   44.0500  115.0160 C.ar  537  TYR537     -0.0009
    189  CE1      -14.4970   42.2710  113.0900 C.ar  537  TYR537      0.0417
    190  CE2      -14.5960   42.9620  115.3860 C.ar  537  TYR537      0.0417
    191  CZ       -14.1590   42.0800  114.4190 C.ar  537  TYR537      0.1957
    192  OH       -13.3780   41.0050  114.7770 O.3   537  TYR537     -0.2866
    193  N        -20.0520   43.8660  107.7890 N.3   600  TYR600     -0.1241
    194  CA       -20.5550   43.0440  108.8910 C.3   600  TYR600      0.1605
    195  C        -22.0110   43.3210  109.2680 C.2   600  TYR600      0.2264
    196  O        -22.5910   44.3400  108.8810 O.2   600  TYR600     -0.2867
    197  CB       -19.6610   43.1960  110.1270 C.3   600  TYR600      0.0534
    198  CG       -18.2980   42.5630  109.9760 C.ar  600  TYR600     -0.0201
    199  CD1      -18.0970   41.2140  110.2660 C.ar  600  TYR600     -0.0009
    200  CD2      -17.2090   43.3120  109.5400 C.ar  600  TYR600     -0.0009
    201  CE1      -16.8470   40.6310  110.1240 C.ar  600  TYR600      0.0417
    202  CE2      -15.9560   42.7390  109.3950 C.ar  600  TYR600      0.0417
    203  CZ       -15.7790   41.4010  109.6900 C.ar  600  TYR600      0.1957
    204  OH       -14.5330   40.8370  109.5440 O.3   600  TYR600     -0.2866
    205  N         -9.4730   26.7740  112.9500 N.3   732  PHE732     -0.1227
    206  CA        -8.6590   27.9950  112.9270 C.3   732  PHE732      0.1736
    207  C         -7.7240   28.0610  111.7150 C.2   732  PHE732      0.2595
    208  O         -6.6270   27.5040  111.7350 O.2   732  PHE732     -0.2718
    209  CB        -7.8680   28.1260  114.2380 C.3   732  PHE732      0.0547
    210  CG        -7.0530   29.3880  114.3470 C.ar  732  PHE732     -0.0202
    211  CD1       -7.6710   30.6270  114.4920 C.ar  732  PHE732     -0.0042
    212  CD2       -5.6660   29.3340  114.3350 C.ar  732  PHE732     -0.0042
    213  CE1       -6.9190   31.7910  114.6020 C.ar  732  PHE732     -0.0003
    214  CE2       -4.9060   30.4940  114.4470 C.ar  732  PHE732     -0.0003
    215  CZ        -5.5360   31.7250  114.5800 C.ar  732  PHE732     -0.0000
    216  N         -8.1790   28.7560  110.6700 N.am  733  TYR733     -0.1976
    217  CA        -7.4380   28.9210  109.4050 C.3   733  TYR733      0.1639
    218  C         -7.1290   27.5990  108.6950 C.2   733  TYR733      0.2290
    219  O         -6.0380   27.4120  108.1350 O.2   733  TYR733     -0.2864
    220  CB        -6.1720   29.7770  109.5910 C.3   733  TYR733      0.0560
    221  CG        -6.4830   31.2380  109.7760 C.ar  733  TYR733     -0.0198
    222  CD1       -6.8970   32.0170  108.6960 C.ar  733  TYR733     -0.0009
    223  CD2       -6.3810   31.8430  111.0280 C.ar  733  TYR733     -0.0009
    224  CE1       -7.2020   33.3640  108.8530 C.ar  733  TYR733      0.0417
    225  CE2       -6.6840   33.1930  111.1980 C.ar  733  TYR733      0.0417
    226  CZ        -7.0910   33.9460  110.1020 C.ar  733  TYR733      0.1957
    227  OH        -7.3930   35.2780  110.2420 O.3   733  TYR733     -0.2866
@<TRIPOS>BOND
     1   139   138    2
     2   106   105    1
     3   106   107    2
     4   105   104    1
     5   144   142   ar
     6   144   145   ar
     7   142   141   ar
     8    99    98    2
     9   138   137    1
    10   114   112    1
    11   104    98   am
    12    98    97    1
    13   108   109    1
    14   141   140    1
    15   141   143   ar
    16   145   147   ar
    17   145   143   ar
    18   109   112    1
    19   109   110    1
    20   137   140    1
    21   137   136    1
    22   112   113    1
    23   147   149   ar
    24   143   146   ar
    25    97    96    1
    26    97   100    1
    27   123   121   am
    28   110   111    2
    29   101   100    1
    30   101   102    1
    31   149   148   ar
    32   146   148   ar
    33   121   120    1
    34   121   122    2
    35   120   119    1
    36   102   103    1
    37   150   151    1
    38   115   116    1
    39   193   194    1
    40   151   154    1
    41   151   152    1
    42   116   119    1
    43   116   117    1
    44   219   218    2
    45   158   156   am
    46   154   155    1
    47   218   217    1
    48   222   224   ar
    49   222   221   ar
    50   224   226   ar
    51   196   195    2
    52   194   195    1
    53   194   197    1
    54   156   155    1
    55   156   157    2
    56   152   153    2
    57    74    75   ar
    58    74    72   ar
    59   117   118    2
    60   202   200   ar
    61   202   203   ar
    62   217   220    1
    63   217   216    1
    64   200   198   ar
    65   135   134    1
    66   204   203    1
    67   220   221    1
    68   170   169    2
    69   203   201   ar
    70    75    73   ar
    71   221   223   ar
    72   198   197    1
    73   198   199   ar
    74    72    69   ar
    75   226   227    1
    76   226   225   ar
    77   201   199   ar
    78   171   168    1
    79   171   172    1
    80   134   133   ar
    81   134   132   ar
    82   216   207   am
    83   168   169    1
    84   168   167    1
    85   169   181   am
    86    81    80    1
    87    73    71   ar
    88    80    77    1
    89   223   225   ar
    90   133   131   ar
    91    69    71   ar
    92    69    67   ar
    93   132   130   ar
    94   172   173   ar
    95   172   174   ar
    96    79    78    2
    97    65    64    2
    98   183   182    1
    99   183   184    2
   100    71    70   ar
   101   207   208    2
   102   207   206    1
   103   173   175   ar
   104   181   182    1
   105   182   185    1
   106   174   177   ar
   107   174   176   ar
   108   177   179   ar
   109    67    66    1
   110    67    68   ar
   111    66    63    1
   112   131   129   ar
   113    77    78    1
   114    77    76    1
   115   130   129   ar
   116    64    76   am
   117    64    63    1
   118    70    68   ar
   119   187   189   ar
   120   187   186   ar
   121   175   176   ar
   122   129   128    1
   123   124   125    1
   124   206   205    1
   125   206   209    1
   126   176   178   ar
   127    63    62    1
   128   179   180   ar
   129   189   191   ar
   130   185   186    1
   131    61    60    1
   132   186   188   ar
   133   125   128    1
   134   125   126    1
   135   180   178   ar
   136   209   210    1
   137   212   210   ar
   138   212   214   ar
   139   210   211   ar
   140   191   192    1
   141   191   190   ar
   142   162   161    2
   143   214   215   ar
   144   211   213   ar
   145   215   213   ar
   146    60    59   ar
   147    60    58   ar
   148    59    57   ar
   149   126   127    2
   150   188   190   ar
   151   161   160    1
   152    58    56   ar
   153    57    55   ar
   154    94    95   ar
   155    94    92   ar
   156    49    48    2
   157   163   160    1
   158   163   164    1
   159   160   159    1
   160    11     9    1
   161    95    93   ar
   162    10     9    1
   163    47    48    1
   164    47    46    1
   165    92    89   ar
   166    56    55   ar
   167    48    50   am
   168    55    54    1
   169     9     8    2
   170    38    36   am
   171    37    36    2
   172   164   166   ar
   173   164   165   ar
   174    93    91   ar
   175    89    91   ar
   176    89    87   ar
   177    36    35    1
   178    46    41   am
   179    91    90   ar
   180    50    51    1
   181     8     7    1
   182    82    83    1
   183    54    51    1
   184    51    52    1
   185    87    86    1
   186    87    88   ar
   187    86    83    1
   188    83    84    1
   189     7     6    1
   190    42    41    2
   191    41    40    1
   192    90    88   ar
   193    35    32    1
   194    45    43    1
   195    52    53    2
   196    84    85    2
   197    34    33    2
   198    39    33   am
   199    39    40    1
   200    33    32    1
   201    40    43    1
   202    32    31    1
   203     6     5    1
   204     5     2    1
   205    43    44    1
   206     4     3    2
   207    31    22   am
   208     1     2    1
   209     2     3    1
   210    23    22    2
   211    22    21    1
   212    18    17    2
   213    21    20    1
   214    21    24    1
   215    24    25    1
   216    19    17   am
   217    17    16    1
   218    27    26    1
   219    27    28    2
   220    30    28    1
   221    25    26    1
   222    16    13    1
   223    28    29    1
   224    13    12    1
   225    13    14    1
   226    15    14    2
