@<TRIPOS>MOLECULE
tmp/2ibjA00.pdb
 188 183 0 0 0
SMALL
GASTEIGER

@<TRIPOS>ATOM
      1  N          0.4500    8.9480   20.1450 N.3    23  PHE23      -0.1241
      2  CA         0.5520    7.5930   20.6580 C.3    23  PHE23       0.1605
      3  C         -0.1460    7.5320   21.9970 C.2    23  PHE23       0.2264
      4  O         -0.5390    8.5470   22.6190 O.2    23  PHE23      -0.2867
      5  CB         2.0210    7.0510   20.7350 C.3    23  PHE23       0.0534
      6  CG         3.0430    7.9900   21.3210 C.ar   23  PHE23      -0.0203
      7  CD1        2.8890    8.5060   22.5820 C.ar   23  PHE23      -0.0042
      8  CD2        4.2250    8.2310   20.6180 C.ar   23  PHE23      -0.0042
      9  CE1        3.9260    9.2390   23.1610 C.ar   23  PHE23      -0.0003
     10  CE2        5.2660    8.9570   21.1760 C.ar   23  PHE23      -0.0003
     11  CZ         5.1380    9.4590   22.4820 C.ar   23  PHE23      -0.0000
     12  N         -0.0830    6.0420   25.9070 N.3    25  ILE25      -0.1245
     13  CA         0.7600    5.4900   26.9670 C.3    25  ILE25       0.1561
     14  C         -0.1740    5.4040   28.1990 C.2    25  ILE25       0.2260
     15  O         -0.7470    6.4120   28.6280 O.2    25  ILE25      -0.2867
     16  CB         1.9840    6.3620   27.3200 C.3    25  ILE25       0.0252
     17  CG1        2.9510    6.3720   26.0920 C.3    25  ILE25       0.0019
     18  CG2        2.6380    5.8200   28.6220 C.3    25  ILE25       0.0019
     19  CD1        4.0930    7.3920   26.2720 C.3    25  ILE25       0.0001
     20  N         -1.3940   11.0130   23.6500 N.3    30  TYR30      -0.1241
     21  CA        -0.4710   12.1480   23.5420 C.3    30  TYR30       0.1605
     22  C         -0.2350   12.5010   22.1100 C.2    30  TYR30       0.2264
     23  O         -0.1770   11.6220   21.2150 O.2    30  TYR30      -0.2867
     24  CB         0.9030   11.7930   24.1600 C.3    30  TYR30       0.0534
     25  CG         0.8390   11.4230   25.6090 C.ar   30  TYR30      -0.0201
     26  CD1        0.6010   10.0850   26.0230 C.ar   30  TYR30      -0.0009
     27  CD2        0.9010   12.4240   26.5890 C.ar   30  TYR30      -0.0009
     28  CE1        0.4240    9.7930   27.3760 C.ar   30  TYR30       0.0417
     29  CE2        0.7290   12.1110   27.9500 C.ar   30  TYR30       0.0417
     30  CZ         0.4790   10.7840   28.3000 C.ar   30  TYR30       0.1957
     31  OH         0.3060   10.4480   29.6350 O.3    30  TYR30      -0.2866
     32  N          2.7560   14.2130   20.3060 N.3    32  VAL32      -0.1245
     33  CA         4.1280   14.7040   20.5000 C.3    32  VAL32       0.1561
     34  C          4.7670   15.3030   19.2450 C.2    32  VAL32       0.2260
     35  O          6.0010   15.4200   19.1610 O.2    32  VAL32      -0.2867
     36  CB         5.0290   13.5420   21.1140 C.3    32  VAL32       0.0252
     37  CG1        4.5050   13.2260   22.5020 C.3    32  VAL32       0.0019
     38  CG2        5.1500   12.3220   20.1760 C.3    32  VAL32       0.0019
     39  N          7.1680   17.9040   20.0270 N.3    35  PHE35      -0.1241
     40  CA         8.1950   17.4600   20.9820 C.3    35  PHE35       0.1605
     41  C          9.3110   16.6440   20.3180 C.2    35  PHE35       0.2264
     42  O         10.3620   16.4240   20.9730 O.2    35  PHE35      -0.2867
     43  CB         7.4920   16.5880   22.0400 C.3    35  PHE35       0.0534
     44  CG         8.4040   16.0250   23.1370 C.ar   35  PHE35      -0.0203
     45  CD1        9.1200   16.8820   24.0110 C.ar   35  PHE35      -0.0042
     46  CD2        8.5200   14.6610   23.3120 C.ar   35  PHE35      -0.0042
     47  CE1        9.9400   16.3240   25.0520 C.ar   35  PHE35      -0.0003
     48  CE2        9.3440   14.1420   24.3330 C.ar   35  PHE35      -0.0003
     49  CZ        10.0450   14.9530   25.1820 C.ar   35  PHE35      -0.0000
     50  N         12.9850   15.8480   22.4630 N.3    39  HIS39      -0.1227
     51  CA        13.1120   14.6100   23.2670 C.3    39  HIS39       0.1737
     52  C         14.5960   14.1900   23.4680 C.2    39  HIS39       0.2438
     53  O         15.3110   13.9700   22.4630 O.2    39  HIS39      -0.2733
     54  CB        12.3300   13.4840   22.5140 C.3    39  HIS39       0.0758
     55  CG        12.2750   12.2090   23.2750 C.ar   39  HIS39       0.0818
     56  ND1       12.5870   11.0000   22.6720 N.ar   39  HIS39      -0.2268
     57  CD2       11.9530   11.9420   24.5680 C.ar   39  HIS39       0.1154
     58  CE1       12.4350   10.0440   23.5700 C.ar   39  HIS39       0.1986
     59  NE2       12.0560   10.5750   24.7200 N.ar   39  HIS39      -0.2212
     60  N         15.0350   13.9930   24.7350 N.am   40  PRO40      -0.2718
     61  CA        16.4480   13.6160   24.9450 C.3    40  PRO40       0.1535
     62  C         16.7790   12.2880   24.3480 C.2    40  PRO40       0.2599
     63  O         17.9450   12.0300   24.0380 O.2    40  PRO40      -0.2715
     64  CB        16.5890   13.5800   26.4620 C.3    40  PRO40       0.0310
     65  CG        15.5760   14.6790   26.9450 C.3    40  PRO40       0.0237
     66  CD        14.3820   14.4060   26.0100 C.3    40  PRO40       0.0939
     67  N         15.7510   11.4460   24.1660 N.am   41  GLY41      -0.1955
     68  CA        15.9830   10.1190   23.5750 C.3    41  GLY41       0.1869
     69  C         15.8640   10.1130   22.0480 C.2    41  GLY41       0.2309
     70  O         15.9450    9.0540   21.3890 O.2    41  GLY41      -0.2863
     71  N         12.7380    7.2700   17.9820 N.3    45  VAL45      -0.1231
     72  CA        12.0050    6.3270   18.8140 C.3    45  VAL45       0.1692
     73  C         10.5650    6.7430   18.9760 C.2    45  VAL45       0.2591
     74  O          9.6900    5.8910   19.1380 O.2    45  VAL45      -0.2718
     75  CB        12.6300    6.1090   20.2140 C.3    45  VAL45       0.0266
     76  CG1       14.0130    5.4430   20.0510 C.3    45  VAL45       0.0020
     77  CG2       12.7040    7.4390   21.0290 C.3    45  VAL45       0.0020
     78  N         10.2970    8.0470   18.8570 N.am   46  LEU46      -0.1980
     79  CA         8.9420    8.5590   18.9470 C.3    46  LEU46       0.1596
     80  C          8.1850    8.4150   17.6160 C.2    46  LEU46       0.2287
     81  O          7.0010    8.0380   17.6320 O.2    46  LEU46      -0.2864
     82  CB         8.9340   10.0350   19.3810 C.3    46  LEU46       0.0297
     83  CG         9.6550   10.3790   20.6700 C.3    46  LEU46       0.0022
     84  CD1        9.4780   11.9100   20.9660 C.3    46  LEU46       0.0001
     85  CD2        9.1040    9.5680   21.7780 C.3    46  LEU46       0.0001
     86  N          6.7710    4.9850   17.0800 N.3    49  GLN49      -0.1245
     87  CA         5.5270    4.6990   17.7960 C.3    49  GLN49       0.1566
     88  C          4.3150    5.4910   17.3640 C.2    49  GLN49       0.2260
     89  O          3.2690    5.2970   17.9730 O.2    49  GLN49      -0.2867
     90  CB         5.7280    4.9480   19.3010 C.3    49  GLN49       0.0367
     91  CG         6.8690    4.0850   19.9420 C.3    49  GLN49       0.0905
     92  CD         6.6830    2.6330   19.6990 C.2    49  GLN49       0.2608
     93  OE1        7.6210    1.9160   19.2790 O.2    49  GLN49      -0.2717
     94  NE2        5.4780    2.1620   19.9160 N.am   49  GLN49      -0.0878
     95  N          2.2960    2.8570   22.8360 N.3    54  ALA54      -0.1245
     96  CA         3.7550    2.8530   23.1220 C.3    54  ALA54       0.1562
     97  C          4.0120    2.5220   24.5880 C.2    54  ALA54       0.2260
     98  O          5.1260    2.6560   25.0470 O.2    54  ALA54      -0.2867
     99  CB         4.3020    4.2410   22.8300 C.3    54  ALA54       0.0290
    100  N          7.0900    0.2390   25.4570 N.3    57  HIS57      -0.1226
    101  CA         8.3740    0.8800   25.1240 C.3    57  HIS57       0.1752
    102  C          8.7160    2.0170   26.0740 C.2    57  HIS57       0.2596
    103  O          9.8650    2.2090   26.4560 O.2    57  HIS57      -0.2718
    104  CB         8.3730    1.4070   23.6750 C.3    57  HIS57       0.0759
    105  CG         8.1930    0.3210   22.6770 C.ar   57  HIS57       0.0818
    106  ND1        9.1530   -0.6400   22.4410 N.ar   57  HIS57      -0.2268
    107  CD2        7.1120   -0.0470   21.9450 C.ar   57  HIS57       0.1154
    108  CE1        8.6730   -1.5490   21.6050 C.ar   57  HIS57       0.1986
    109  NE2        7.4420   -1.2090   21.2900 N.ar   57  HIS57      -0.2212
    110  N          7.7040    2.7890   26.4940 N.am   58  PHE58      -0.1976
    111  CA         7.9060    3.8970   27.3880 C.3    58  PHE58       0.1639
    112  C          8.3720    3.3600   28.7540 C.2    58  PHE58       0.2290
    113  O          9.2790    3.8970   29.3620 O.2    58  PHE58      -0.2864
    114  CB         6.5870    4.6990   27.5340 C.3    58  PHE58       0.0560
    115  CG         6.6640    5.8350   28.5150 C.ar   58  PHE58      -0.0200
    116  CD1        7.2460    7.0820   28.1440 C.ar   58  PHE58      -0.0042
    117  CD2        6.2060    5.6750   29.8520 C.ar   58  PHE58      -0.0042
    118  CE1        7.3420    8.1420   29.1000 C.ar   58  PHE58      -0.0003
    119  CE2        6.3180    6.7260   30.7750 C.ar   58  PHE58      -0.0003
    120  CZ         6.8790    7.9380   30.3850 C.ar   58  PHE58      -0.0000
    121  N         11.9740    2.0560   29.2150 N.3    61  VAL61      -0.1231
    122  CA        12.9800    3.0700   29.4580 C.3    61  VAL61       0.1692
    123  C         13.0290    3.5070   30.9550 C.2    61  VAL61       0.2593
    124  O         14.0890    3.8880   31.4480 O.2    61  VAL61      -0.2718
    125  CB        12.7210    4.3050   28.5050 C.3    61  VAL61       0.0266
    126  CG1       13.6450    5.5220   28.8930 C.3    61  VAL61       0.0020
    127  CG2       12.9780    3.8640   27.0890 C.3    61  VAL61       0.0020
    128  N         11.9260    3.4760   31.6870 N.am   62  GLY62      -0.1942
    129  CA        11.9920    3.9270   33.0770 C.3    62  GLY62       0.2014
    130  C         12.3180    5.4310   33.1570 C.2    62  GLY62       0.2639
    131  O         13.3290    5.8880   33.7310 O.2    62  GLY62      -0.2714
    132  N         11.4100    6.1820   32.5920 N.am   63  HIS63      -0.1959
    133  CA        11.5070    7.6610   32.5640 C.3    63  HIS63       0.1787
    134  C         11.4730    8.2400   33.9730 C.2    63  HIS63       0.2620
    135  O         10.8980    7.6580   34.8930 O.2    63  HIS63      -0.2715
    136  CB        10.3510    8.2190   31.6930 C.3    63  HIS63       0.0785
    137  CG        10.6300    8.1180   30.2100 C.ar   63  HIS63       0.0821
    138  ND1       10.3540    7.0010   29.4350 N.ar   63  HIS63      -0.2267
    139  CD2       11.1290    9.0480   29.3670 C.ar   63  HIS63       0.1154
    140  CE1       10.6600    7.2670   28.1580 C.ar   63  HIS63       0.1986
    141  NE2       11.1360    8.5010   28.0940 N.ar   63  HIS63      -0.2212
    142  N         12.1150    9.3970   34.0900 N.am   64  SER64      -0.1950
    143  CA        12.2150   10.0930   35.3930 C.3    64  SER64       0.1924
    144  C         10.9410   10.8480   35.7770 C.2    64  SER64       0.2314
    145  O          9.9990   11.0070   34.9970 O.2    64  SER64      -0.2863
    146  CB        13.3360   11.1210   35.2550 C.3    64  SER64       0.2116
    147  OG        12.9250   12.2220   34.4000 O.3    64  SER64      -0.2180
    148  N         10.7790   14.0380   36.1530 N.3    66  ASP66      -0.1225
    149  CA        10.6820   15.2100   35.3040 C.3    66  ASP66       0.1805
    150  C         10.1510   14.8430   33.9370 C.2    66  ASP66       0.2597
    151  O          9.3540   15.6360   33.3810 O.2    66  ASP66      -0.2718
    152  CB        12.0260   15.9370   35.1690 C.3    66  ASP66       0.1424
    153  CG        12.4670   16.6380   36.4520 C.2    66  ASP66       0.3668
    154  OD1       11.6110   16.8700   37.3540 O.co2  66  ASP66      -0.2456
    155  OD2       13.7020   16.9880   36.4770 O.co2  66  ASP66      -0.2456
    156  N         10.5300   13.6800   33.4000 N.am   67  ALA67      -0.1979
    157  CA        10.0020   13.2750   32.0680 C.3    67  ALA67       0.1597
    158  C          8.4830   13.0190   32.2170 C.2    67  ALA67       0.2287
    159  O          7.7140   13.4330   31.3300 O.2    67  ALA67      -0.2864
    160  CB        10.7020   11.9980   31.6310 C.3    67  ALA67       0.0319
    161  N          6.7150   16.3100   32.2810 N.3    70  MET70      -0.1230
    162  CA         6.8300   16.9270   30.9470 C.3    70  MET70       0.1702
    163  C          5.7690   16.3390   29.9980 C.2    70  MET70       0.2592
    164  O          5.2560   17.0010   29.0920 O.2    70  MET70      -0.2718
    165  CB         8.2490   16.6260   30.3880 C.3    70  MET70       0.0401
    166  CG         8.6340   17.3670   29.0650 C.3    70  MET70       0.0596
    167  SD        10.2510   16.8360   28.5600 S.3    70  MET70      -0.1393
    168  CE        11.2750   17.7720   29.8280 C.3    70  MET70       0.0692
    169  N          5.4310   15.0770   30.1790 N.am   71  MET71      -0.1979
    170  CA         4.4820   14.4530   29.2770 C.3    71  MET71       0.1605
    171  C          3.1020   15.0770   29.3060 C.2    71  MET71       0.2287
    172  O          2.3500   15.0670   28.2930 O.2    71  MET71      -0.2864
    173  CB         4.2220   12.9580   29.6270 C.3    71  MET71       0.0413
    174  CG         5.3340   12.0650   29.7870 C.3    71  MET71       0.0598
    175  SD         4.6620   10.5390   30.6110 S.3    71  MET71      -0.1393
    176  CE         3.8990    9.7160   29.1220 C.3    71  MET71       0.0692
    177  N          1.5950   17.3340   26.6690 N.3    74  TYR74      -0.1241
    178  CA         1.3170   16.7720   25.3510 C.3    74  TYR74       0.1605
    179  C          0.0640   15.8780   25.3350 C.2    74  TYR74       0.2264
    180  O         -0.2990   15.3250   24.2530 O.2    74  TYR74      -0.2867
    181  CB         2.5270   15.9630   24.8520 C.3    74  TYR74       0.0534
    182  CG         3.7710   16.8470   24.7070 C.ar   74  TYR74      -0.0201
    183  CD1        3.7950   17.8530   23.7420 C.ar   74  TYR74      -0.0009
    184  CD2        4.8490   16.7250   25.5790 C.ar   74  TYR74      -0.0009
    185  CE1        4.8990   18.7160   23.6840 C.ar   74  TYR74       0.0417
    186  CE2        5.9680   17.6170   25.5200 C.ar   74  TYR74       0.0417
    187  CZ         5.9510   18.6050   24.5590 C.ar   74  TYR74       0.1957
    188  OH         7.0120   19.5270   24.4880 O.3    74  TYR74      -0.2866
@<TRIPOS>BOND
     1    86    87    1
     2    88    87    1
     3    88    89    2
     4    80    81    2
     5    80    79    1
     6    87    90    1
     7    71    72    1
     8    72    73    1
     9    72    75    1
    10    78    79    1
    11    78    73   am
    12    79    82    1
    13    73    74    2
    14    35    34    2
    15    34    33    1
    16    93    92    2
    17    90    91    1
    18    82    83    1
    19    92    94   am
    20    92    91    1
    21    39    40    1
    22    76    75    1
    23     1     2    1
    24    38    36    1
    25    75    77    1
    26    32    33    1
    27    41    42    2
    28    41    40    1
    29    33    36    1
    30     8    10   ar
    31     8     6   ar
    32     2     5    1
    33     2     3    1
    34    83    84    1
    35    83    85    1
    36     5     6    1
    37    40    43    1
    38    36    37    1
    39    10    11   ar
    40    23    22    2
    41   109   108   ar
    42   109   107   ar
    43     6     7   ar
    44    70    69    2
    45   108   106   ar
    46   107   105   ar
    47     3     4    2
    48    43    44    1
    49    69    68    1
    50    22    21    1
    51   106   105   ar
    52    50    51    1
    53    53    52    2
    54    11     9   ar
    55    54    51    1
    56    54    55    1
    57     7     9   ar
    58    56    55   ar
    59    56    58   ar
    60   105   104    1
    61    99    96    1
    62    95    96    1
    63    96    97    1
    64    44    46   ar
    65    44    45   ar
    66    51    52    1
    67    55    57   ar
    68    46    48   ar
    69    52    60   am
    70    21    20    1
    71    21    24    1
    72    58    59   ar
    73    68    67    1
    74   104   101    1
    75   185   183   ar
    76   185   187   ar
    77   183   182   ar
    78    45    47   ar
    79    63    62    2
    80    24    25    1
    81    67    62   am
    82   180   179    2
    83    48    49   ar
    84    62    61    1
    85   188   187    1
    86   187   186   ar
    87    57    59   ar
    88    97    98    2
    89   182   181    1
    90   182   184   ar
    91    60    61    1
    92    60    66    1
    93   181   178    1
    94    61    64    1
    95    47    49   ar
    96   101   100    1
    97   101   102    1
    98   179   178    1
    99   178   177    1
   100   186   184   ar
   101    25    26   ar
   102    25    27   ar
   103    12    13    1
   104    66    65    1
   105    26    28   ar
   106   102   103    2
   107   102   110   am
   108    17    19    1
   109    17    16    1
   110    64    65    1
   111   110   111    1
   112    27    29   ar
   113    13    16    1
   114    13    14    1
   115   127   125    1
   116    16    18    1
   117    28    30   ar
   118   111   114    1
   119   111   112    1
   120   114   115    1
   121    29    30   ar
   122   141   140   ar
   123   141   139   ar
   124   116   115   ar
   125   116   118   ar
   126   140   138   ar
   127    14    15    2
   128   172   171    2
   129    30    31    1
   130   125   126    1
   131   125   122    1
   132   115   117   ar
   133   167   166    1
   134   167   168    1
   135   112   113    2
   136   166   165    1
   137   164   163    2
   138   118   120   ar
   139   176   175    1
   140   121   122    1
   141   170   171    1
   142   170   173    1
   143   170   169    1
   144   139   137   ar
   145   138   137   ar
   146   122   123    1
   147   173   174    1
   148   174   175    1
   149   117   119   ar
   150   163   169   am
   151   163   162    1
   152   137   136    1
   153   120   119   ar
   154   165   162    1
   155   162   161    1
   156   123   124    2
   157   123   128   am
   158   159   158    2
   159   160   157    1
   160   128   129    1
   161   136   133    1
   162   157   158    1
   163   157   156    1
   164   133   132    1
   165   133   134    1
   166   132   130   am
   167   129   130    1
   168   130   131    2
   169   151   150    2
   170   156   150   am
   171   150   149    1
   172   134   142   am
   173   134   135    2
   174   142   143    1
   175   147   146    1
   176   145   144    2
   177   152   149    1
   178   152   153    1
   179   146   143    1
   180   149   148    1
   181   143   144    1
   182   153   155   ar
   183   153   154   ar
