@<TRIPOS>MOLECULE
tmp/2ibyD00.pdb
 226 217 0 0 0
SMALL
GASTEIGER

@<TRIPOS>ATOM
      1  N        -19.7510   54.8600   97.5410 N.3   121  MET121     -0.1245
      2  CA       -19.6860   53.6610   96.7380 C.3   121  MET121      0.1570
      3  C        -20.5860   53.8070   95.4940 C.2   121  MET121      0.2261
      4  O        -20.3380   53.1720   94.4700 O.2   121  MET121     -0.2867
      5  CB       -19.9680   52.4020   97.5690 C.3   121  MET121      0.0387
      6  CG       -18.9100   52.2350   98.7070 C.3   121  MET121      0.0595
      7  SD       -19.1440   50.8750   99.8600 S.3   121  MET121     -0.1393
      8  CE       -18.3250   49.5620   98.9810 C.3   121  MET121      0.0692
      9  N        -12.2200   46.9130   96.0300 N.3   148  GLY148     -0.1210
     10  CA       -12.8800   46.9280   97.3290 C.3   148  GLY148      0.1956
     11  C        -13.1760   45.5650   97.9330 C.2   148  GLY148      0.2611
     12  O        -12.9070   45.3380   99.1210 O.2   148  GLY148     -0.2717
     13  N        -13.7250   44.6500   97.1310 N.am  149  LEU149     -0.1979
     14  CA       -14.3760   43.4470   97.6990 C.3   149  LEU149      0.1596
     15  C        -13.7470   42.0920   97.3650 C.2   149  LEU149      0.2287
     16  O        -14.2090   41.0420   97.8410 O.2   149  LEU149     -0.2864
     17  CB       -15.8740   43.4620   97.3740 C.3   149  LEU149      0.0297
     18  CG       -16.6310   44.7290   97.7690 C.3   149  LEU149      0.0022
     19  CD1      -18.1050   44.6510   97.3330 C.3   149  LEU149      0.0001
     20  CD2      -16.4980   44.9930   99.2600 C.3   149  LEU149      0.0001
     21  N        -14.5900   36.7410   96.8040 N.3   157  HIS157     -0.1226
     22  CA       -15.2340   37.8660   97.4810 C.3   157  HIS157      0.1752
     23  C        -14.9520   37.8130   98.9850 C.2   157  HIS157      0.2595
     24  O        -14.7640   36.7290   99.5600 O.2   157  HIS157     -0.2718
     25  CB       -16.7430   37.8280   97.2330 C.3   157  HIS157      0.0759
     26  CG       -17.4380   39.1400   97.4440 C.ar  157  HIS157      0.0818
     27  ND1      -17.7240   39.6430   98.6960 N.ar  157  HIS157     -0.2268
     28  CD2      -17.9340   40.0350   96.5590 C.ar  157  HIS157      0.1154
     29  CE1      -18.3530   40.7970   98.5740 C.ar  157  HIS157      0.1986
     30  NE2      -18.4980   41.0550   97.2860 N.ar  157  HIS157     -0.2212
     31  N        -14.9230   38.9870   99.6130 N.am  158  MET158     -0.1979
     32  CA       -14.9160   39.1030  101.0720 C.3   158  MET158      0.1605
     33  C        -15.9580   38.1780  101.7180 C.2   158  MET158      0.2287
     34  O        -15.6740   37.5080  102.7020 O.2   158  MET158     -0.2864
     35  CB       -15.1840   40.5540  101.4900 C.3   158  MET158      0.0413
     36  CG       -14.1540   41.5600  101.0180 C.3   158  MET158      0.0598
     37  SD       -12.5680   41.4050  101.8590 S.3   158  MET158     -0.1393
     38  CE       -11.6520   40.2940  100.8090 C.3   158  MET158      0.0692
     39  N        -30.8090   45.3030  112.9140 N.3   184  TYR184     -0.1241
     40  CA       -31.8970   46.1630  112.4350 C.3   184  TYR184      0.1605
     41  C        -32.7770   46.6780  113.5700 C.2   184  TYR184      0.2264
     42  O        -33.1600   47.8570  113.5880 O.2   184  TYR184     -0.2867
     43  CB       -32.7730   45.4260  111.4290 C.3   184  TYR184      0.0534
     44  CG       -32.1520   45.3030  110.0570 C.ar  184  TYR184     -0.0201
     45  CD1      -32.2500   46.3460  109.1400 C.ar  184  TYR184     -0.0009
     46  CD2      -31.4840   44.1450  109.6770 C.ar  184  TYR184     -0.0009
     47  CE1      -31.6790   46.2410  107.8600 C.ar  184  TYR184      0.0417
     48  CE2      -30.9180   44.0300  108.4110 C.ar  184  TYR184      0.0417
     49  CZ       -31.0220   45.0770  107.5110 C.ar  184  TYR184      0.1957
     50  OH       -30.4440   44.9640  106.2530 O.3   184  TYR184     -0.2866
     51  N        -34.7980   49.4170  105.0920 N.3   223  ARG223     -0.1231
     52  CA       -34.8480   48.5050  103.9370 C.3   223  ARG223      0.1694
     53  C        -34.6750   47.0550  104.3640 C.2   223  ARG223      0.2592
     54  O        -33.6120   46.4540  104.1720 O.2   223  ARG223     -0.2718
     55  CB       -33.7900   48.8690  102.8830 C.3   223  ARG223      0.0321
     56  CG       -33.8000   50.3250  102.4200 C.3   223  ARG223      0.0489
     57  CD       -32.8140   50.5530  101.2670 C.3   223  ARG223      0.2205
     58  NE       -33.4580   50.3250   99.9780 N.pl3 223  ARG223     -0.0865
     59  CZ       -32.8350   50.2200   98.8080 C.cat 223  ARG223      0.5346
     60  NH1      -31.5130   50.3090   98.7270 N.pl3 223  ARG223      0.1354
     61  NH2      -33.5490   50.0160   97.7090 N.pl3 223  ARG223      0.1354
     62  N        -35.7320   46.4900  104.9400 N.am  224  VAL224     -0.1966
     63  CA       -35.6730   45.1450  105.5250 C.3   224  VAL224      0.1727
     64  C        -37.0770   44.5490  105.6480 C.2   224  VAL224      0.2616
     65  O        -38.0530   45.2790  105.8240 O.2   224  VAL224     -0.2715
     66  CB       -34.9620   45.1620  106.9220 C.3   224  VAL224      0.0290
     67  CG1      -35.7280   46.0170  107.9440 C.3   224  VAL224      0.0023
     68  CG2      -34.7340   43.7680  107.4630 C.3   224  VAL224      0.0023
     69  N        -37.1550   43.2230  105.5410 N.am  225  ASP225     -0.1971
     70  CA       -38.3750   42.4650  105.7720 C.3   225  ASP225      0.1709
     71  C        -37.9850   41.1990  106.5260 C.2   225  ASP225      0.2293
     72  O        -37.4060   40.2770  105.9360 O.2   225  ASP225     -0.2864
     73  CB       -39.0390   42.1280  104.4320 C.3   225  ASP225      0.1436
     74  CG       -40.3440   41.3470  104.5840 C.2   225  ASP225      0.3671
     75  OD1      -40.6680   40.8770  105.6990 O.co2 225  ASP225     -0.2456
     76  OD2      -41.0450   41.2030  103.5640 O.co2 225  ASP225     -0.2456
     77  N        -38.7300   37.7670  105.1700 N.3   228  LYS228     -0.1231
     78  CA       -37.9080   37.4110  104.0060 C.3   228  LYS228      0.1693
     79  C        -36.5140   36.9010  104.3880 C.2   228  LYS228      0.2591
     80  O        -35.9380   36.0650  103.6810 O.2   228  LYS228     -0.2718
     81  CB       -37.7850   38.5970  103.0390 C.3   228  LYS228      0.0285
     82  CG       -39.0380   38.8810  102.2080 C.3   228  LYS228      0.0035
     83  CD       -38.7230   39.7400  100.9790 C.3   228  LYS228      0.0206
     84  CE       -37.9160   38.9670   99.9340 C.3   228  LYS228      0.1093
     85  NZ       -37.6010   39.7830   98.7280 N.3   228  LYS228     -0.1314
     86  N        -35.9860   37.4000  105.5060 N.am  229  VAL229     -0.1980
     87  CA       -34.6240   37.0710  105.9630 C.3   229  VAL229      0.1595
     88  C        -34.2530   35.5760  105.8670 C.2   229  VAL229      0.2287
     89  O        -33.2360   35.2460  105.2440 O.2   229  VAL229     -0.2864
     90  CB       -34.3290   37.6320  107.3870 C.3   229  VAL229      0.0276
     91  CG1      -32.9550   37.2040  107.8690 C.3   229  VAL229      0.0022
     92  CG2      -34.4420   39.1520  107.4010 C.3   229  VAL229      0.0022
     93  N        -33.9650   34.0390  102.0120 N.3   232  LEU232     -0.1231
     94  CA       -32.9510   34.4850  101.0400 C.3   232  LEU232      0.1693
     95  C        -31.9370   33.4090  100.6600 C.2   232  LEU232      0.2591
     96  O        -31.6420   32.5170  101.4580 O.2   232  LEU232     -0.2718
     97  CB       -32.2100   35.7280  101.5520 C.3   232  LEU232      0.0284
     98  CG       -33.0500   36.9580  101.9050 C.3   232  LEU232      0.0019
     99  CD1      -32.1510   38.1570  102.1400 C.3   232  LEU232      0.0001
    100  CD2      -34.0770   37.2590  100.8170 C.3   232  LEU232      0.0001
    101  N        -31.4170   33.5020   99.4360 N.am  233  LYS233     -0.1980
    102  CA       -30.3590   32.6020   98.9680 C.3   233  LYS233      0.1596
    103  C        -29.0000   33.0710   99.4780 C.2   233  LYS233      0.2287
    104  O        -28.7760   34.2720   99.6620 O.2   233  LYS233     -0.2864
    105  CB       -30.3440   32.5040   97.4340 C.3   233  LYS233      0.0298
    106  CG       -30.3120   33.8510   96.6950 C.3   233  LYS233      0.0038
    107  CD       -30.2740   33.6860   95.1750 C.3   233  LYS233      0.0206
    108  CE       -28.8550   33.4500   94.6540 C.3   233  LYS233      0.1093
    109  NZ       -28.8230   33.2350   93.1770 N.3   233  LYS233     -0.1314
    110  N        -25.7090   34.1370   98.7760 N.3   235  VAL235     -0.1231
    111  CA       -25.1680   34.7250   97.5410 C.3   235  VAL235      0.1692
    112  C        -23.6710   34.5030   97.2620 C.2   235  VAL235      0.2592
    113  O        -23.2220   34.6950   96.1300 O.2   235  VAL235     -0.2718
    114  CB       -25.5080   36.2390   97.4440 C.3   235  VAL235      0.0266
    115  CG1      -27.0190   36.4490   97.5220 C.3   235  VAL235      0.0020
    116  CG2      -24.8050   37.0350   98.5390 C.3   235  VAL235      0.0020
    117  N        -22.9050   34.1140   98.2790 N.am  236  PHE236     -0.1976
    118  CA       -21.4560   33.9540   98.1210 C.3   236  PHE236      0.1639
    119  C        -21.0000   32.5040   98.0020 C.2   236  PHE236      0.2290
    120  O        -19.8260   32.2440   97.7220 O.2   236  PHE236     -0.2864
    121  CB       -20.6960   34.6660   99.2520 C.3   236  PHE236      0.0560
    122  CG       -20.9370   36.1460   99.2980 C.ar  236  PHE236     -0.0200
    123  CD1      -20.4510   36.9720   98.2910 C.ar  236  PHE236     -0.0042
    124  CD2      -21.6580   36.7110  100.3400 C.ar  236  PHE236     -0.0042
    125  CE1      -20.6830   38.3350   98.3170 C.ar  236  PHE236     -0.0003
    126  CE2      -21.8930   38.0830  100.3870 C.ar  236  PHE236     -0.0003
    127  CZ       -21.4050   38.9000   99.3710 C.ar  236  PHE236     -0.0000
    128  N        -27.5370   38.6440  101.6080 N.3   245  ALA245     -0.1231
    129  CA       -27.6370   40.0960  101.5330 C.3   245  ALA245      0.1694
    130  C        -28.1600   40.6760  102.8460 C.2   245  ALA245      0.2591
    131  O        -27.7380   41.7610  103.2690 O.2   245  ALA245     -0.2718
    132  CB       -28.5420   40.5150  100.3700 C.3   245  ALA245      0.0304
    133  N        -29.0700   39.9490  103.4960 N.am  246  ALA246     -0.1980
    134  CA       -29.6730   40.4300  104.7410 C.3   246  ALA246      0.1597
    135  C        -28.6820   40.4610  105.9130 C.2   246  ALA246      0.2287
    136  O        -28.6970   41.3950  106.7180 O.2   246  ALA246     -0.2864
    137  CB       -30.9180   39.6130  105.1060 C.3   246  ALA246      0.0319
    138  N        -25.2880   40.3190  105.7240 N.3   248  ALA248     -0.1231
    139  CA       -24.0370   41.0030  105.3930 C.3   248  ALA248      0.1694
    140  C        -24.2600   42.5040  105.3700 C.2   248  ALA248      0.2593
    141  O        -25.3920   42.9700  105.2590 O.2   248  ALA248     -0.2718
    142  CB       -23.5270   40.5380  104.0490 C.3   248  ALA248      0.0304
    143  N        -23.1720   43.2660  105.4650 N.am  249  SER249     -0.1938
    144  CA       -23.2440   44.6950  105.2630 C.3   249  SER249      0.2055
    145  C        -23.5940   44.9640  103.8040 C.2   249  SER249      0.2644
    146  O        -23.4170   44.1010  102.9380 O.2   249  SER249     -0.2714
    147  CB       -21.9060   45.3470  105.6040 C.3   249  SER249      0.2130
    148  OG       -20.8640   44.7270  104.8640 O.3   249  SER249     -0.2179
    149  N        -24.0840   46.1700  103.5530 N.am  250  THR250     -0.1936
    150  CA       -24.4940   46.6070  102.2290 C.3   250  THR250      0.2028
    151  C        -23.4610   47.5960  101.6980 C.2   250  THR250      0.2642
    152  O        -22.4950   47.9120  102.3990 O.2   250  THR250     -0.2714
    153  CB       -25.8470   47.2960  102.2990 C.3   250  THR250      0.1808
    154  OG1      -25.8560   48.2030  103.4180 O.3   250  THR250     -0.2208
    155  CG2      -26.9490   46.2630  102.4710 C.3   250  THR250      0.0379
    156  N        -23.6490   48.0450  100.4530 N.am  251  LEU251     -0.1977
    157  CA       -22.8060   49.0850   99.8440 C.3   251  LEU251      0.1596
    158  C        -23.4610   50.4290  100.0710 C.2   251  LEU251      0.2287
    159  O        -24.6740   50.5740   99.8800 O.2   251  LEU251     -0.2864
    160  CB       -22.6430   48.8490   98.3460 C.3   251  LEU251      0.0297
    161  CG       -22.3250   47.4340   97.8740 C.3   251  LEU251      0.0022
    162  CD1      -22.3130   47.3910   96.3450 C.3   251  LEU251      0.0001
    163  CD2      -21.0120   46.9280   98.4610 C.3   251  LEU251      0.0001
    164  N         -9.5200   37.2910  107.7820 N.3   290  PHE290     -0.1241
    165  CA        -9.7700   38.6500  108.2670 C.3   290  PHE290      0.1605
    166  C        -10.9190   38.7700  109.2810 C.2   290  PHE290      0.2264
    167  O        -10.8570   39.6440  110.1460 O.2   290  PHE290     -0.2867
    168  CB        -9.9440   39.6600  107.1170 C.3   290  PHE290      0.0534
    169  CG       -11.2760   39.5760  106.4170 C.ar  290  PHE290     -0.0203
    170  CD1      -12.4170   40.1650  106.9740 C.ar  290  PHE290     -0.0042
    171  CD2      -11.3910   38.9270  105.2010 C.ar  290  PHE290     -0.0042
    172  CE1      -13.6510   40.0780  106.3340 C.ar  290  PHE290     -0.0003
    173  CE2      -12.6230   38.8510  104.5470 C.ar  290  PHE290     -0.0003
    174  CZ       -13.7490   39.4270  105.1160 C.ar  290  PHE290     -0.0000
    175  N        -19.1440   44.0220  109.4250 N.3   320  ALA320     -0.1231
    176  CA       -18.8510   43.7190  108.0240 C.3   320  ALA320      0.1694
    177  C        -19.8170   42.6490  107.5230 C.2   320  ALA320      0.2592
    178  O        -20.3780   42.7430  106.4300 O.2   320  ALA320     -0.2718
    179  CB       -17.4180   43.2340  107.8810 C.3   320  ALA320      0.0304
    180  N        -19.9590   41.6170  108.3420 N.am  321  PHE321     -0.1976
    181  CA       -20.8970   40.5340  108.1280 C.3   321  PHE321      0.1639
    182  C        -21.3630   40.1800  109.5360 C.2   321  PHE321      0.2290
    183  O        -20.5940   40.3220  110.4890 O.2   321  PHE321     -0.2864
    184  CB       -20.1900   39.3450  107.4760 C.3   321  PHE321      0.0560
    185  CG       -19.6150   39.6500  106.1160 C.ar  321  PHE321     -0.0200
    186  CD1      -20.3910   39.4940  104.9660 C.ar  321  PHE321     -0.0042
    187  CD2      -18.3040   40.1080  105.9870 C.ar  321  PHE321     -0.0042
    188  CE1      -19.8660   39.7760  103.7040 C.ar  321  PHE321     -0.0003
    189  CE2      -17.7660   40.4050  104.7290 C.ar  321  PHE321     -0.0003
    190  CZ       -18.5480   40.2400  103.5850 C.ar  321  PHE321     -0.0000
    191  N        -22.3360   50.2770  105.1560 N.3   350  HIS350     -0.1241
    192  CA       -20.8890   50.1760  105.2950 C.3   350  HIS350      0.1621
    193  C        -20.1700   50.9370  104.1530 C.2   350  HIS350      0.2264
    194  O        -19.6090   50.3010  103.2490 O.2   350  HIS350     -0.2867
    195  CB       -20.5180   48.6860  105.2940 C.3   350  HIS350      0.0745
    196  CG       -19.0690   48.3860  105.5440 C.ar  350  HIS350      0.0817
    197  ND1      -18.2010   49.2710  106.1540 N.ar  350  HIS350     -0.2268
    198  CD2      -18.3450   47.2690  105.2860 C.ar  350  HIS350      0.1154
    199  CE1      -17.0040   48.7190  106.2410 C.ar  350  HIS350      0.1986
    200  NE2      -17.0640   47.5060  105.7220 N.ar  350  HIS350     -0.2212
    201  N        -17.1610   52.0060  103.0010 N.3   352  ILE352     -0.1245
    202  CA       -16.0400   51.2930  103.6080 C.3   352  ILE352      0.1561
    203  C        -14.9680   52.1610  104.2680 C.2   352  ILE352      0.2260
    204  O        -14.5380   51.8710  105.3860 O.2   352  ILE352     -0.2867
    205  CB       -15.4580   50.1780  102.6900 C.3   352  ILE352      0.0252
    206  CG1      -14.9670   50.7400  101.3460 C.3   352  ILE352      0.0019
    207  CG2      -16.5010   49.0690  102.4680 C.3   352  ILE352      0.0019
    208  CD1      -14.3790   49.6880  100.4070 C.3   352  ILE352      0.0001
    209  N        -12.3010   44.9000  110.8860 N.3   378  CYS378     -0.1221
    210  CA       -11.4920   44.0530  110.0080 C.3   378  CYS378      0.1808
    211  C        -11.3070   44.7740  108.6740 C.2   378  CYS378      0.2601
    212  O        -12.0640   45.6940  108.3630 O.2   378  CYS378     -0.2717
    213  CB       -12.1310   42.6690  109.8200 C.3   378  CYS378      0.0970
    214  SG       -13.8370   42.6520  109.1590 S.3   378  CYS378     -0.0800
    215  N        -10.2730   44.3980  107.9240 N.am  379  ASN379     -0.1960
    216  CA       -10.0810   44.9100  106.5630 C.3   379  ASN379      0.1819
    217  C         -9.6000   43.8140  105.6240 C.2   379  ASN379      0.2621
    218  O         -8.8790   42.9100  106.0420 O.2   379  ASN379     -0.2715
    219  CB        -9.1380   46.1230  106.5340 C.3   379  ASN379      0.1195
    220  CG        -7.7400   45.8120  107.0650 C.2   379  ASN379      0.2630
    221  OD1       -7.4400   46.0890  108.2250 O.2   379  ASN379     -0.2716
    222  ND2       -6.8720   45.2640  106.2100 N.am  379  ASN379     -0.0877
    223  N        -10.0150   43.8900  104.3580 N.am  380  GLY380     -0.1954
    224  CA        -9.5380   42.9530  103.3330 C.3   380  GLY380      0.1869
    225  C         -8.0240   42.8700  103.2770 C.2   380  GLY380      0.2309
    226  O         -7.3250   43.8740  103.4570 O.2   380  GLY380     -0.2863
@<TRIPOS>BOND
     1   109   108    1
     2     4     3    2
     3   108   107    1
     4   107   106    1
     5     3     2    1
     6     9    10    1
     7   113   112    2
     8   162   161    1
     9    28    30   ar
    10    28    26   ar
    11   106   105    1
    12     2     1    1
    13     2     5    1
    14    21    22    1
    15    13    14    1
    16    13    11   am
    17    25    26    1
    18    25    22    1
    19   112   111    1
    20   112   117   am
    21    30    29   ar
    22    10    11    1
    23    19    18    1
    24    15    14    1
    25    15    16    2
    26    17    14    1
    27    17    18    1
    28   105   102    1
    29   114   115    1
    30   114   111    1
    31   114   116    1
    32    26    27   ar
    33    22    23    1
    34   111   110    1
    35     5     6    1
    36    61    59    1
    37   120   119    2
    38    18    20    1
    39   161   160    1
    40   161   163    1
    41    11    12    2
    42   119   118    1
    43   118   117    1
    44   118   121    1
    45   123   125   ar
    46   123   122   ar
    47   125   127   ar
    48   160   157    1
    49    29    27   ar
    50     6     7    1
    51    60    59    1
    52    85    84    1
    53    59    58    2
    54   102   101    1
    55   102   103    1
    56     8     7    1
    57    23    24    2
    58    23    31   am
    59   121   122    1
    60   122   124   ar
    61   127   126   ar
    62   101    95   am
    63   103   104    2
    64    31    32    1
    65   157   158    1
    66   157   156    1
    67   159   158    2
    68    84    83    1
    69    58    57    1
    70   124   126   ar
    71   132   129    1
    72   208   206    1
    73   156   151   am
    74    95    94    1
    75    95    96    2
    76    38    37    1
    77   100    98    1
    78    83    82    1
    79    36    35    1
    80    36    37    1
    81    94    97    1
    82    94    93    1
    83    32    35    1
    84    32    33    1
    85    57    56    1
    86   206   205    1
    87   129   128    1
    88   129   130    1
    89    97    98    1
    90   151   150    1
    91   151   152    2
    92    33    34    2
    93    98    99    1
    94    82    81    1
    95   150   153    1
    96   150   149    1
    97   153   155    1
    98   153   154    1
    99    56    55    1
   100   207   205    1
   101   205   202    1
   102   130   131    2
   103   130   133   am
   104    55    52    1
   105   146   145    2
   106   201   202    1
   107    81    78    1
   108   194   193    2
   109   225   224    1
   110   225   226    2
   111   224   223    1
   112   133   134    1
   113   149   145   am
   114    76    74   ar
   115   190   188   ar
   116   190   189   ar
   117   202   203    1
   118    80    79    2
   119   188   186   ar
   120   145   144    1
   121    52    53    1
   122    52    51    1
   123    78    79    1
   124    78    77    1
   125   142   139    1
   126   193   192    1
   127    54    53    2
   128   203   204    2
   129   223   217   am
   130    53    62   am
   131    79    86   am
   132    73    74    1
   133    73    70    1
   134   173   174   ar
   135   173   171   ar
   136    74    75   ar
   137   189   187   ar
   138   134   137    1
   139   134   135    1
   140   148   147    1
   141    62    63    1
   142   186   185   ar
   143   174   172   ar
   144   191   192    1
   145   171   169   ar
   146    89    88    2
   147   141   140    2
   148   144   143    1
   149   144   147    1
   150   198   196   ar
   151   198   200   ar
   152   195   192    1
   153   195   196    1
   154   140   139    1
   155   140   143   am
   156   139   138    1
   157    86    87    1
   158    63    64    1
   159    63    66    1
   160    69    64   am
   161    69    70    1
   162   196   197   ar
   163   217   218    2
   164   217   216    1
   165    64    65    2
   166   200   199   ar
   167    70    71    1
   168    88    87    1
   169   135   136    2
   170    72    71    2
   171    87    90    1
   172   187   185   ar
   173   185   184    1
   174   197   199   ar
   175   222   220   am
   176    50    49    1
   177   172   170   ar
   178   169   170   ar
   179   169   168    1
   180   178   177    2
   181   219   216    1
   182   219   220    1
   183   216   215    1
   184    66    68    1
   185    66    67    1
   186   220   221    2
   187   168   165    1
   188    90    92    1
   189    90    91    1
   190   184   181    1
   191    49    47   ar
   192    49    48   ar
   193   177   176    1
   194   177   180   am
   195   164   165    1
   196    47    45   ar
   197   179   176    1
   198   215   211   am
   199   176   175    1
   200   181   180    1
   201   181   182    1
   202   165   166    1
   203   212   211    2
   204    48    46   ar
   205   211   210    1
   206    45    44   ar
   207   214   213    1
   208   166   167    2
   209   182   183    2
   210    46    44   ar
   211   213   210    1
   212   210   209    1
   213    44    43    1
   214    43    40    1
   215    40    39    1
   216    40    41    1
   217    41    42    2
