@<TRIPOS>MOLECULE
tmp/2ic3A00.pdb
 156 152 0 0 0
SMALL
GASTEIGER

@<TRIPOS>ATOM
      1  N        137.7260  -16.6220   74.8830 N.3    95  PRO95      -0.2116
      2  CA       137.0100  -17.1770   73.7410 C.3    95  PRO95       0.1372
      3  C        136.1180  -18.1990   74.3920 C.2    95  PRO95       0.2244
      4  O        136.6300  -19.0660   75.0760 O.2    95  PRO95      -0.2868
      5  CB       138.1090  -17.8520   72.9480 C.3    95  PRO95       0.0268
      6  CG       139.2640  -16.9580   73.1930 C.3    95  PRO95       0.0207
      7  CD       139.1760  -16.6350   74.6670 C.3    95  PRO95       0.0892
      8  N        134.5810  -21.4930   74.8170 N.3    97  PRO97      -0.2116
      9  CA       134.8500  -22.7170   74.0620 C.3    97  PRO97       0.1372
     10  C        133.8210  -23.0180   72.9890 C.2    97  PRO97       0.2244
     11  O        134.1760  -23.4040   71.8930 O.2    97  PRO97      -0.2868
     12  CB       134.9180  -23.7970   75.1550 C.3    97  PRO97       0.0268
     13  CG       134.1530  -23.2200   76.2920 C.3    97  PRO97       0.0207
     14  CD       134.5540  -21.7720   76.2650 C.3    97  PRO97       0.0892
     15  N        134.4390  -22.8010   69.2290 N.3   100  LEU100     -0.1231
     16  CA       135.7240  -23.3180   68.8100 C.3   100  LEU100      0.1693
     17  C        135.5440  -24.3850   67.7660 C.2   100  LEU100      0.2591
     18  O        134.5060  -25.0480   67.6820 O.2   100  LEU100     -0.2718
     19  CB       136.5030  -23.8670   70.0070 C.3   100  LEU100      0.0284
     20  CG       137.0160  -22.7950   70.9610 C.3   100  LEU100      0.0019
     21  CD1      137.7240  -23.4160   72.1290 C.3   100  LEU100      0.0001
     22  CD2      137.9400  -21.8940   70.1890 C.3   100  LEU100      0.0001
     23  N        136.5800  -24.5560   66.9720 N.am  101  LYS101     -0.1980
     24  CA       136.5050  -25.5130   65.9150 C.3   101  LYS101      0.1596
     25  C        137.0980  -26.8380   66.2730 C.2   101  LYS101      0.2287
     26  O        138.1250  -26.9120   66.9340 O.2   101  LYS101     -0.2864
     27  CB       137.1780  -24.9600   64.6540 C.3   101  LYS101      0.0298
     28  CG       136.5930  -23.6370   64.1660 C.3   101  LYS101      0.0038
     29  CD       137.1330  -22.4830   65.0010 C.3   101  LYS101      0.0206
     30  CE       136.3240  -21.2150   64.7950 C.3   101  LYS101      0.1093
     31  NZ       136.8300  -20.1170   65.6630 N.3   101  LYS101     -0.1314
     32  N        138.9910  -30.1120   66.2840 N.3   103  ASN103     -0.1240
     33  CA       140.3680  -30.3730   65.8870 C.3   103  ASN103      0.1653
     34  C        140.7830  -31.7900   66.2210 C.2   103  ASN103      0.2266
     35  O        140.2640  -32.3790   67.1530 O.2   103  ASN103     -0.2867
     36  CB       141.3160  -29.3870   66.5600 C.3   103  ASN103      0.1155
     37  CG       141.6530  -28.2310   65.6640 C.2   103  ASN103      0.2627
     38  OD1      142.6500  -27.5390   65.8760 O.2   103  ASN103     -0.2716
     39  ND2      140.8260  -28.0080   64.6480 N.am  103  ASN103     -0.0877
     40  N        145.7340  -30.7910   69.2050 N.3   106  VAL106     -0.1245
     41  CA       145.8680  -29.5020   69.8900 C.3   106  VAL106      0.1561
     42  C        147.0320  -29.6640   70.8310 C.2   106  VAL106      0.2260
     43  O        147.1010  -30.6610   71.5410 O.2   106  VAL106     -0.2867
     44  CB       144.6220  -29.1260   70.7370 C.3   106  VAL106      0.0252
     45  CG1      144.9090  -27.8910   71.5850 C.3   106  VAL106      0.0019
     46  CG2      143.4540  -28.8410   69.8330 C.3   106  VAL106      0.0019
     47  N        146.7650  -23.4340   63.0560 N.3   179  VAL179     -0.1245
     48  CA       146.2550  -22.4130   63.9560 C.3   179  VAL179      0.1561
     49  C        147.1060  -22.1750   65.2020 C.2   179  VAL179      0.2260
     50  O        147.5340  -23.1110   65.8720 O.2   179  VAL179     -0.2867
     51  CB       144.8420  -22.7860   64.3920 C.3   179  VAL179      0.0252
     52  CG1      144.2940  -21.7340   65.3220 C.3   179  VAL179      0.0019
     53  CG2      143.9550  -22.9650   63.1630 C.3   179  VAL179      0.0019
     54  N        146.6140  -19.4800   68.2050 N.3   181  CYS181     -0.1235
     55  CA       146.0790  -18.3590   68.9530 C.3   181  CYS181      0.1677
     56  C        146.8390  -18.4520   70.2730 C.2   181  CYS181      0.2270
     57  O        147.5600  -19.4120   70.4840 O.2   181  CYS181     -0.2867
     58  CB       144.5620  -18.5480   69.1150 C.3   181  CYS181      0.0956
     59  SG       143.9100  -18.7270   70.8010 S.3   181  CYS181     -0.0801
     60  N        146.8110  -17.1840   74.7530 N.3   183  TYR183     -0.1241
     61  CA       146.0710  -16.5850   75.8600 C.3   183  TYR183      0.1605
     62  C        147.0690  -16.2470   76.9610 C.2   183  TYR183      0.2264
     63  O        147.3570  -17.0500   77.8430 O.2   183  TYR183     -0.2867
     64  CB       144.9750  -17.4980   76.4260 C.3   183  TYR183      0.0534
     65  CG       144.5700  -17.0670   77.8280 C.ar  183  TYR183     -0.0201
     66  CD1      143.9990  -15.8060   78.0590 C.ar  183  TYR183     -0.0009
     67  CD2      144.8680  -17.8690   78.9360 C.ar  183  TYR183     -0.0009
     68  CE1      143.7600  -15.3450   79.3560 C.ar  183  TYR183      0.0417
     69  CE2      144.6250  -17.4210   80.2400 C.ar  183  TYR183      0.0417
     70  CZ       144.0720  -16.1600   80.4430 C.ar  183  TYR183      0.1957
     71  OH       143.8520  -15.7130   81.7310 O.3   183  TYR183     -0.2866
     72  N        148.3210  -22.1640   72.0440 N.3   188  TYR188     -0.1241
     73  CA       147.6170  -23.3730   71.5830 C.3   188  TYR188      0.1605
     74  C        147.7960  -23.6650   70.0980 C.2   188  TYR188      0.2264
     75  O        146.9400  -23.3370   69.2850 O.2   188  TYR188     -0.2867
     76  CB       146.1310  -23.2890   71.8790 C.3   188  TYR188      0.0534
     77  CG       145.8660  -23.2240   73.3430 C.ar  188  TYR188     -0.0201
     78  CD1      146.3910  -22.1890   74.1060 C.ar  188  TYR188     -0.0009
     79  CD2      145.1140  -24.2070   73.9870 C.ar  188  TYR188     -0.0009
     80  CE1      146.1600  -22.1080   75.4660 C.ar  188  TYR188      0.0417
     81  CE2      144.8720  -24.1420   75.3680 C.ar  188  TYR188      0.0417
     82  CZ       145.4070  -23.0770   76.0970 C.ar  188  TYR188      0.1957
     83  OH       145.1290  -22.9030   77.4350 O.3   188  TYR188     -0.2866
     84  N        147.4810  -25.6530   66.9290 N.3   190  GLY190     -0.1225
     85  CA       146.5150  -26.6990   66.6670 C.3   190  GLY190      0.1811
     86  C        146.6090  -27.1160   65.2390 C.2   190  GLY190      0.2280
     87  O        147.0800  -26.3260   64.4300 O.2   190  GLY190     -0.2866
     88  N        145.9010  -32.7240   77.0130 N.3   225  PRO225     -0.2116
     89  CA       144.4560  -32.5010   76.8630 C.3   225  PRO225      0.1372
     90  C        143.6570  -33.7260   77.2890 C.2   225  PRO225      0.2244
     91  O        144.0630  -34.8460   77.0130 O.2   225  PRO225     -0.2868
     92  CB       144.3140  -32.2460   75.3670 C.3   225  PRO225      0.0268
     93  CG       145.2880  -33.2200   74.7930 C.3   225  PRO225      0.0207
     94  CD       146.5010  -33.0680   75.7050 C.3   225  PRO225      0.0892
     95  N        142.1500  -30.0070   78.9490 N.3   227  PHE227     -0.1241
     96  CA       142.8150  -28.8910   79.5860 C.3   227  PHE227      0.1605
     97  C        141.9810  -28.2240   80.6400 C.2   227  PHE227      0.2264
     98  O        140.7550  -28.3000   80.6440 O.2   227  PHE227     -0.2867
     99  CB       143.1900  -27.8140   78.5840 C.3   227  PHE227      0.0534
    100  CG       144.2480  -28.2200   77.6220 C.ar  227  PHE227     -0.0203
    101  CD1      143.9080  -28.6650   76.3380 C.ar  227  PHE227     -0.0042
    102  CD2      145.5860  -28.1550   77.9860 C.ar  227  PHE227     -0.0042
    103  CE1      144.8870  -29.0330   75.4260 C.ar  227  PHE227     -0.0003
    104  CE2      146.5740  -28.5200   77.0900 C.ar  227  PHE227     -0.0003
    105  CZ       146.2250  -28.9640   75.8010 C.ar  227  PHE227     -0.0000
    106  N        141.5180  -24.7790   81.4620 N.3   229  TRP229     -0.1241
    107  CA       141.6900  -23.4320   80.9650 C.3   229  TRP229      0.1605
    108  C        140.5090  -22.5790   81.3720 C.2   229  TRP229      0.2264
    109  O        139.3570  -22.9080   81.0870 O.2   229  TRP229     -0.2867
    110  CB       141.8120  -23.4440   79.4420 C.3   229  TRP229      0.0550
    111  CG       142.1160  -22.1040   78.8740 C.ar  229  TRP229      0.0003
    112  CD1      143.3030  -21.4340   78.9390 C.ar  229  TRP229      0.0946
    113  CD2      141.2040  -21.2520   78.1830 C.ar  229  TRP229      0.0152
    114  NE1      143.1830  -20.2140   78.3290 N.ar  229  TRP229     -0.2442
    115  CE2      141.9050  -20.0760   77.8560 C.ar  229  TRP229      0.0810
    116  CE3      139.8590  -21.3650   77.8110 C.ar  229  TRP229      0.0012
    117  CZ2      141.3060  -19.0210   77.1710 C.ar  229  TRP229      0.0191
    118  CZ3      139.2650  -20.3180   77.1320 C.ar  229  TRP229      0.0001
    119  CH2      139.9890  -19.1600   76.8180 C.ar  229  TRP229      0.0015
    120  N        138.6570  -29.0380   78.1030 N.3   234  LEU234     -0.1231
    121  CA       138.6430  -29.2380   76.6530 C.3   234  LEU234      0.1693
    122  C        139.2090  -30.5300   76.0610 C.2   234  LEU234      0.2592
    123  O        140.4180  -30.6860   75.9460 O.2   234  LEU234     -0.2718
    124  CB       139.3640  -28.0670   75.9580 C.3   234  LEU234      0.0284
    125  CG       139.1870  -26.6070   76.4000 C.3   234  LEU234      0.0019
    126  CD1      140.1970  -25.7570   75.6390 C.3   234  LEU234      0.0001
    127  CD2      137.7770  -26.1120   76.1520 C.3   234  LEU234      0.0001
    128  N        138.3290  -31.4400   75.6610 N.am  235  HIS235     -0.1962
    129  CA       138.7640  -32.6750   75.0040 C.3   235  HIS235      0.1772
    130  C        138.6020  -32.2820   73.5270 C.2   235  HIS235      0.2462
    131  O        138.7250  -31.1130   73.1800 O.2   235  HIS235     -0.2730
    132  CB       137.8140  -33.8610   75.3160 C.3   235  HIS235      0.0785
    133  CG       137.4510  -34.0030   76.7660 C.ar  235  HIS235      0.0821
    134  ND1      136.1670  -33.8120   77.2350 N.ar  235  HIS235     -0.2267
    135  CD2      138.2060  -34.2940   77.8500 C.ar  235  HIS235      0.1154
    136  CE1      136.1490  -33.9750   78.5470 C.ar  235  HIS235      0.1986
    137  NE2      137.3740  -34.2660   78.9450 N.ar  235  HIS235     -0.2212
    138  N        138.4220  -33.2550   72.6310 N.am  236  PRO236     -0.2727
    139  CA       138.2410  -32.7650   71.2690 C.3   236  PRO236      0.1402
    140  C        136.7250  -32.5900   71.1150 C.2   236  PRO236      0.2269
    141  O        136.2000  -31.5190   71.4170 O.2   236  PRO236     -0.2865
    142  CB       138.8000  -33.8940   70.4210 C.3   236  PRO236      0.0296
    143  CG       139.8940  -34.4020   71.2730 C.3   236  PRO236      0.0237
    144  CD       139.1670  -34.5190   72.5940 C.3   236  PRO236      0.0939
    145  N        131.6780  -28.8090   69.5320 N.3   318  TYR318     -0.1241
    146  CA       132.3770  -27.7540   68.8210 C.3   318  TYR318      0.1605
    147  C        131.5460  -27.3880   67.6030 C.2   318  TYR318      0.2264
    148  O        130.6210  -28.1250   67.2400 O.2   318  TYR318     -0.2867
    149  CB       133.8000  -28.1940   68.4820 C.3   318  TYR318      0.0534
    150  CG       134.6750  -28.1280   69.7180 C.ar  318  TYR318     -0.0201
    151  CD1      135.9720  -28.6370   69.7260 C.ar  318  TYR318     -0.0009
    152  CD2      134.1800  -27.5780   70.8970 C.ar  318  TYR318     -0.0009
    153  CE1      136.7470  -28.6030   70.8820 C.ar  318  TYR318      0.0417
    154  CE2      134.9380  -27.5400   72.0460 C.ar  318  TYR318      0.0417
    155  CZ       136.2160  -28.0560   72.0410 C.ar  318  TYR318      0.1957
    156  OH       136.9290  -28.0520   73.2200 O.3   318  TYR318     -0.2866
@<TRIPOS>BOND
     1    47    48    1
     2    53    51    1
     3    48    51    1
     4    48    49    1
     5    28    27    1
     6    28    29    1
     7    51    52    1
     8    87    86    2
     9    39    37   am
    10    27    24    1
    11    30    29    1
    12    30    31    1
    13    49    50    2
    14    86    85    1
    15    37    38    2
    16    37    36    1
    17    33    34    1
    18    33    32    1
    19    33    36    1
    20    24    25    1
    21    24    23    1
    22    34    35    2
    23    25    26    2
    24    85    84    1
    25    23    17   am
    26   148   147    2
    27   147   146    1
    28    18    17    2
    29    17    16    1
    30    54    55    1
    31   149   146    1
    32   149   150    1
    33    16    15    1
    34    16    19    1
    35   146   145    1
    36    55    58    1
    37    55    56    1
    38    58    59    1
    39    40    41    1
    40    75    74    2
    41   150   151   ar
    42   150   152   ar
    43   151   153   ar
    44    46    44    1
    45    41    44    1
    46    41    42    1
    47    19    20    1
    48    74    73    1
    49    22    20    1
    50    56    57    2
    51   142   139    1
    52   142   143    1
    53    44    45    1
    54    42    43    2
    55   153   155   ar
    56   152   154   ar
    57    20    21    1
    58   140   139    1
    59   140   141    2
    60   139   138    1
    61   143   144    1
    62    73    76    1
    63    73    72    1
    64    76    77    1
    65    11    10    2
    66   155   154   ar
    67   155   156    1
    68   144   138    1
    69   138   130   am
    70     5     6    1
    71     5     2    1
    72    10     9    1
    73   131   130    2
    74     6     7    1
    75    77    79   ar
    76    77    78   ar
    77   130   129    1
    78     2     3    1
    79     2     1    1
    80    79    81   ar
    81     9     8    1
    82     9    12    1
    83    78    80   ar
    84     3     4    2
    85     7     1    1
    86    60    61    1
    87    93    92    1
    88    93    94    1
    89     8    14    1
    90   129   132    1
    91   129   128    1
    92    12    13    1
    93   132   133    1
    94    92    89    1
    95    81    82   ar
    96   103   105   ar
    97   103   101   ar
    98    80    82   ar
    99   126   125    1
   100   128   122   am
   101    94    88    1
   102   105   104   ar
   103    61    64    1
   104    61    62    1
   105   123   122    2
   106   124   125    1
   107   124   121    1
   108   122   121    1
   109    82    83    1
   110   127   125    1
   111    14    13    1
   112   101   100   ar
   113    64    65    1
   114   121   120    1
   115   133   134   ar
   116   133   135   ar
   117   119   118   ar
   118   119   117   ar
   119    89    88    1
   120    89    90    1
   121    62    63    2
   122    91    90    2
   123   104   102   ar
   124   118   116   ar
   125   117   115   ar
   126   134   136   ar
   127   100   102   ar
   128   100    99    1
   129   116   113   ar
   130    65    66   ar
   131    65    67   ar
   132   135   137   ar
   133   115   113   ar
   134   115   114   ar
   135    66    68   ar
   136   113   111   ar
   137   114   112   ar
   138   136   137   ar
   139    99    96    1
   140   111   112   ar
   141   111   110    1
   142    67    69   ar
   143    95    96    1
   144    68    70   ar
   145   110   107    1
   146    96    97    1
   147    69    70   ar
   148    70    71    1
   149    97    98    2
   150   107   108    1
   151   107   106    1
   152   109   108    2
