@<TRIPOS>MOLECULE
tmp/2ic5A01.pdb
 79 76 0 0 0
SMALL
GASTEIGER

@<TRIPOS>ATOM
      1  N        -27.5680   14.8440  -11.4480 N.3    24  TYR24      -0.1227
      2  CA       -27.6100   16.2890  -11.5480 C.3    24  TYR24       0.1736
      3  C        -28.2920   16.7260  -12.8360 C.2    24  TYR24       0.2596
      4  O        -29.2570   17.4740  -12.7970 O.2    24  TYR24      -0.2718
      5  CB       -26.2020   16.8500  -11.4770 C.3    24  TYR24       0.0548
      6  CG       -26.1840   18.3220  -11.7210 C.ar   24  TYR24      -0.0200
      7  CD1      -26.8080   19.1860  -10.8360 C.ar   24  TYR24      -0.0009
      8  CD2      -25.5970   18.8590  -12.8550 C.ar   24  TYR24      -0.0009
      9  CE1      -26.7980   20.5650  -11.0600 C.ar   24  TYR24       0.0417
     10  CE2      -25.5960   20.2440  -13.0760 C.ar   24  TYR24       0.0417
     11  CZ       -26.1990   21.0770  -12.1720 C.ar   24  TYR24       0.1957
     12  OH       -26.2320   22.4530  -12.3530 O.3    24  TYR24      -0.2866
     13  N        -27.8210   16.2250  -13.9790 N.am   25  THR25      -0.1939
     14  CA       -28.3300   16.6850  -15.2770 C.3    25  THR25       0.2028
     15  C        -29.7350   16.2440  -15.6480 C.2    25  THR25       0.2643
     16  O        -30.4600   16.9990  -16.2760 O.2    25  THR25      -0.2714
     17  CB       -27.3880   16.3230  -16.4540 C.3    25  THR25       0.1808
     18  OG1      -27.2310   14.9050  -16.5470 O.3    25  THR25      -0.2208
     19  CG2      -26.0620   16.9660  -16.2680 C.3    25  THR25       0.0379
     20  N        -30.1140   15.0230  -15.2790 N.am   26  THR26      -0.1936
     21  CA       -31.4020   14.4620  -15.6190 C.3    26  THR26       0.2028
     22  C        -32.4070   14.4670  -14.4770 C.2    26  THR26       0.2642
     23  O        -33.5900   14.2020  -14.7110 O.2    26  THR26      -0.2714
     24  CB       -31.2980   12.9810  -16.0960 C.3    26  THR26       0.1808
     25  OG1      -31.0220   12.1400  -14.9710 O.3    26  THR26      -0.2208
     26  CG2      -30.2090   12.7900  -17.1670 C.3    26  THR26       0.0379
     27  N        -31.9540   14.7630  -13.2630 N.am   27  ASN27      -0.1971
     28  CA       -32.8160   14.7400  -12.0720 C.3    27  ASN27       0.1688
     29  C        -33.2980   13.3210  -11.7060 C.2    27  ASN27       0.2292
     30  O        -34.2710   13.1640  -10.9780 O.2    27  ASN27      -0.2864
     31  CB       -34.0190   15.6730  -12.2810 C.3    27  ASN27       0.1181
     32  CG       -34.6200   16.1640  -10.9910 C.2    27  ASN27       0.2629
     33  OD1      -33.9530   16.2330   -9.9630 O.2    27  ASN27      -0.2716
     34  ND2      -35.9010   16.5250  -11.0410 N.am   27  ASN27      -0.0877
     35  N        -25.2200   20.8900  -19.4060 N.3    41  ALA41      -0.1231
     36  CA       -26.3310   21.4290  -18.5630 C.3    41  ALA41       0.1694
     37  C        -26.4760   22.9600  -18.6970 C.2    41  ALA41       0.2592
     38  O        -25.5200   23.6500  -19.0280 O.2    41  ALA41      -0.2718
     39  CB       -26.1150   21.0770  -17.1140 C.3    41  ALA41       0.0304
     40  N        -27.6690   23.4800  -18.4330 N.am   42  ASN42      -0.1960
     41  CA       -27.8770   24.9480  -18.3550 C.3    42  ASN42       0.1819
     42  C        -28.2330   25.3330  -16.9170 C.2    42  ASN42       0.2621
     43  O        -29.0570   24.6550  -16.2680 O.2    42  ASN42      -0.2715
     44  CB       -28.9790   25.4060  -19.3080 C.3    42  ASN42       0.1195
     45  CG       -28.5950   25.2930  -20.7930 C.2    42  ASN42       0.2630
     46  OD1      -27.4160   25.2730  -21.1700 O.2    42  ASN42      -0.2716
     47  ND2      -29.6180   25.2530  -21.6460 N.am   42  ASN42      -0.0877
     48  N        -27.6230   26.4180  -16.4310 N.am   43  VAL43      -0.1963
     49  CA       -27.8170   26.8930  -15.0640 C.3    43  VAL43       0.1727
     50  C        -28.0360   28.3840  -15.0380 C.2    43  VAL43       0.2616
     51  O        -27.3500   29.1500  -15.7190 O.2    43  VAL43      -0.2715
     52  CB       -26.6290   26.5180  -14.1320 C.3    43  VAL43       0.0290
     53  CG1      -26.9600   26.8570  -12.6750 C.3    43  VAL43       0.0023
     54  CG2      -26.2650   25.0410  -14.2710 C.3    43  VAL43       0.0023
     55  N        -29.0020   28.7990  -14.2380 N.am   44  MET44      -0.1977
     56  CA       -29.2910   30.2030  -14.0680 C.3    44  MET44       0.1605
     57  C        -28.4240   30.6640  -12.9070 C.2    44  MET44       0.2287
     58  O        -28.5410   30.1490  -11.8030 O.2    44  MET44      -0.2864
     59  CB       -30.7610   30.3990  -13.7420 C.3    44  MET44       0.0413
     60  CG       -31.1930   31.8660  -13.7060 C.3    44  MET44       0.0598
     61  SD       -31.1530   32.6810  -15.2990 S.3    44  MET44      -0.1393
     62  CE       -32.7860   32.3060  -15.9380 C.3    44  MET44       0.0692
     63  N        -27.2720   20.1200   -6.4280 N.3   165  LYS165     -0.1245
     64  CA       -27.2730   21.3780   -7.1950 C.3   165  LYS165      0.1561
     65  C        -26.2210   22.3540   -6.6760 C.2   165  LYS165      0.2260
     66  O        -25.6250   23.0850   -7.4560 O.2   165  LYS165     -0.2867
     67  CB       -28.6520   22.0250   -7.2040 C.3   165  LYS165      0.0271
     68  CG       -29.6380   21.2350   -8.0440 C.3   165  LYS165      0.0035
     69  CD       -29.8390   19.8000   -7.5720 C.3   165  LYS165      0.0206
     70  CE       -30.3480   19.7120   -6.0950 C.3   165  LYS165      0.1093
     71  NZ       -31.0740   18.4200   -5.7000 N.3   165  LYS165     -0.1314
     72  N        -23.4850   24.6830   -8.7070 N.3   169  ASP169     -0.1239
     73  CA       -23.6180   26.1320   -8.4550 C.3   169  ASP169      0.1674
     74  C        -22.2850   26.7200   -7.9670 C.2   169  ASP169      0.2266
     75  O        -21.8290   27.7970   -8.4210 O.2   169  ASP169     -0.2867
     76  CB       -24.6880   26.4090   -7.3760 C.3   169  ASP169      0.1410
     77  CG       -26.1430   26.2930   -7.8880 C.2   169  ASP169      0.3668
     78  OD1      -26.4000   26.3240   -9.1160 O.co2 169  ASP169     -0.2456
     79  OD2      -27.0550   26.1890   -7.0270 O.co2 169  ASP169     -0.2456
@<TRIPOS>BOND
     1    47    45   am
     2    46    45    2
     3    45    44    1
     4    35    36    1
     5    44    41    1
     6    38    37    2
     7    37    36    1
     8    37    40   am
     9    36    39    1
    10    40    41    1
    11    41    42    1
    12    26    24    1
    13    42    48   am
    14    42    43    2
    15    18    17    1
    16    17    19    1
    17    17    14    1
    18    48    49    1
    19    16    15    2
    20    24    21    1
    21    24    25    1
    22    62    61    1
    23    51    50    2
    24    15    20   am
    25    15    14    1
    26    21    20    1
    27    21    22    1
    28    61    60    1
    29    14    13    1
    30    49    50    1
    31    49    52    1
    32    50    55   am
    33    23    22    2
    34    22    27   am
    35    54    52    1
    36    55    56    1
    37    52    53    1
    38    56    59    1
    39    56    57    1
    40    13     3   am
    41    59    60    1
    42    27    28    1
    43    10     8   ar
    44    10    11   ar
    45    57    58    2
    46     8     6   ar
    47     3     4    2
    48     3     2    1
    49    12    11    1
    50    31    28    1
    51    31    32    1
    52    11     9   ar
    53    28    29    1
    54     6     5    1
    55     6     7   ar
    56    29    30    2
    57     2     5    1
    58     2     1    1
    59     9     7   ar
    60    34    32   am
    61    32    33    2
    62    78    77   ar
    63    72    73    1
    64    73    74    1
    65    73    76    1
    66    75    74    2
    67    68    69    1
    68    68    67    1
    69    77    76    1
    70    77    79   ar
    71    69    70    1
    72    66    65    2
    73    67    64    1
    74    64    65    1
    75    64    63    1
    76    70    71    1
