@<TRIPOS>MOLECULE
tmp/2ic8A07.pdb
 77 75 0 0 0
SMALL
GASTEIGER

@<TRIPOS>ATOM
      1  N         -1.3720   34.6900   32.5680 N.3    98  VAL98      -0.1231
      2  CA        -2.5860   35.0390   31.8370 C.3    98  VAL98       0.1692
      3  C         -2.2720   35.9640   30.6650 C.2    98  VAL98       0.2591
      4  O         -2.8240   35.8060   29.5700 O.2    98  VAL98      -0.2718
      5  CB        -3.5980   35.7180   32.7620 C.3    98  VAL98       0.0266
      6  CG1       -4.8070   36.1520   31.9780 C.3    98  VAL98       0.0020
      7  CG2       -4.0060   34.7560   33.8580 C.3    98  VAL98       0.0020
      8  N         -1.3780   36.9190   30.9080 N.am   99  GLN99      -0.1979
      9  CA        -0.9580   37.8790   29.8990 C.3    99  GLN99       0.1601
     10  C         -0.2990   37.1370   28.7420 C.2    99  GLN99       0.2287
     11  O         -0.6700   37.3050   27.5830 O.2    99  GLN99      -0.2864
     12  CB         0.0480   38.8590   30.5130 C.3    99  GLN99       0.0394
     13  CG         0.4870   40.0100   29.6050 C.3    99  GLN99       0.0908
     14  CD        -0.6800   40.8100   29.0530 C.2    99  GLN99       0.2608
     15  OE1       -1.7170   40.9360   29.6950 O.2    99  GLN99      -0.2717
     16  NE2       -0.5090   41.3600   27.8610 N.am   99  GLN99      -0.0878
     17  N         -2.6920   34.8630   26.4880 N.3   102  PHE102     -0.1227
     18  CA        -3.5430   35.5280   25.5230 C.3   102  PHE102      0.1736
     19  C         -2.8970   36.5700   24.6170 C.2   102  PHE102      0.2596
     20  O         -3.3990   36.8240   23.5270 O.2   102  PHE102     -0.2718
     21  CB        -4.7360   36.1550   26.2520 C.3   102  PHE102      0.0547
     22  CG        -5.6590   35.1440   26.8770 C.ar  102  PHE102     -0.0202
     23  CD1       -5.6960   34.9720   28.2570 C.ar  102  PHE102     -0.0042
     24  CD2       -6.4810   34.3500   26.0810 C.ar  102  PHE102     -0.0042
     25  CE1       -6.5380   34.0260   28.8380 C.ar  102  PHE102     -0.0003
     26  CE2       -7.3280   33.4010   26.6510 C.ar  102  PHE102     -0.0003
     27  CZ        -7.3550   33.2400   28.0340 C.ar  102  PHE102     -0.0000
     28  N         -1.7810   37.1520   25.0370 N.am  103  SER103     -0.1952
     29  CA        -1.1650   38.2030   24.2340 C.3   103  SER103      0.1924
     30  C          0.3180   38.0390   23.9220 C.2   103  SER103      0.2314
     31  O          0.9350   38.9400   23.3600 O.2   103  SER103     -0.2863
     32  CB        -1.3820   39.5420   24.9330 C.3   103  SER103      0.2116
     33  OG        -2.7000   39.6150   25.4610 O.3   103  SER103     -0.2180
     34  N         -8.6270   49.6900   31.8760 N.3   151  TRP151     -0.1241
     35  CA        -9.6870   48.8820   31.3090 C.3   151  TRP151      0.1605
     36  C        -10.1610   49.3400   29.9420 C.2   151  TRP151      0.2264
     37  O        -10.3070   48.5250   29.0260 O.2   151  TRP151     -0.2867
     38  CB       -10.8740   48.8210   32.2610 C.3   151  TRP151      0.0550
     39  CG       -11.7920   47.6920   31.9340 C.ar  151  TRP151      0.0003
     40  CD1      -12.8380   47.7080   31.0620 C.ar  151  TRP151      0.0946
     41  CD2      -11.7250   46.3640   32.4560 C.ar  151  TRP151      0.0152
     42  NE1      -13.4340   46.4720   31.0070 N.ar  151  TRP151     -0.2442
     43  CE2      -12.7700   45.6260   31.8570 C.ar  151  TRP151      0.0810
     44  CE3      -10.8800   45.7230   33.3700 C.ar  151  TRP151      0.0012
     45  CZ2      -12.9970   44.2710   32.1470 C.ar  151  TRP151      0.0191
     46  CZ3      -11.1000   44.3780   33.6570 C.ar  151  TRP151      0.0001
     47  CH2      -12.1550   43.6660   33.0450 C.ar  151  TRP151      0.0015
     48  N         -3.0340   43.3840   29.6890 N.3   160  ALA160     -0.1231
     49  CA        -4.4340   43.4370   29.2840 C.3   160  ALA160      0.1694
     50  C         -5.3790   43.2540   30.4780 C.2   160  ALA160      0.2592
     51  O         -4.9580   42.8750   31.5740 O.2   160  ALA160     -0.2718
     52  CB        -4.7180   42.3670   28.2320 C.3   160  ALA160      0.0304
     53  N         -6.6620   43.4990   30.2450 N.am  161  ASN161     -0.1960
     54  CA        -7.6550   43.3690   31.2940 C.3   161  ASN161      0.1819
     55  C         -7.7070   41.9730   31.9390 C.2   161  ASN161      0.2622
     56  O         -7.8620   41.8530   33.1520 O.2   161  ASN161     -0.2715
     57  CB        -9.0330   43.7540   30.7460 C.3   161  ASN161      0.1195
     58  CG        -9.1120   45.2300   30.3300 C.2   161  ASN161      0.2630
     59  OD1       -8.2420   46.0410   30.6590 O.2   161  ASN161     -0.2716
     60  ND2      -10.1680   45.5730   29.6070 N.am  161  ASN161     -0.0877
     61  N         -7.5810   40.9240   31.1320 N.am  162  GLY162     -0.1940
     62  CA        -7.6210   39.5760   31.6780 C.3   162  GLY162      0.2014
     63  C         -6.5170   39.3320   32.6970 C.2   162  GLY162      0.2638
     64  O         -6.7480   38.7700   33.7740 O.2   162  GLY162     -0.2714
     65  N         -5.3090   39.7650   32.3630 N.am  163  ALA163     -0.1977
     66  CA        -4.1770   39.5920   33.2570 C.3   163  ALA163      0.1597
     67  C         -4.3710   40.3680   34.5630 C.2   163  ALA163      0.2287
     68  O         -3.9700   39.9070   35.6330 O.2   163  ALA163     -0.2864
     69  CB        -2.8990   40.0260   32.5640 C.3   163  ALA163      0.0319
     70  N         -7.2620   41.0920   35.9330 N.3   165  ILE165     -0.1245
     71  CA        -8.2840   40.4390   36.7270 C.3   165  ILE165      0.1561
     72  C         -7.6410   39.3040   37.5080 C.2   165  ILE165      0.2260
     73  O         -7.9410   39.1060   38.6840 O.2   165  ILE165     -0.2867
     74  CB        -9.4240   39.9090   35.8460 C.3   165  ILE165      0.0252
     75  CG1      -10.3500   41.0680   35.5080 C.3   165  ILE165      0.0019
     76  CG2      -10.2060   38.8080   36.5670 C.3   165  ILE165      0.0019
     77  CD1      -11.5690   40.6480   34.7510 C.3   165  ILE165      0.0001
@<TRIPOS>BOND
     1    31    30    2
     2    20    19    2
     3    30    29    1
     4    29    32    1
     5    29    28    1
     6    19    28   am
     7    19    18    1
     8    32    33    1
     9    18    21    1
    10    18    17    1
    11    24    26   ar
    12    24    22   ar
    13    21    22    1
    14    26    27   ar
    15    22    23   ar
    16    11    10    2
    17    16    14   am
    18    27    25   ar
    19    52    49    1
    20    23    25   ar
    21    10     9    1
    22    37    36    2
    23    14    13    1
    24    14    15    2
    25    49    48    1
    26    49    50    1
    27     4     3    2
    28    13    12    1
    29    60    58   am
    30     9    12    1
    31     9     8    1
    32    36    35    1
    33    53    50   am
    34    53    54    1
    35    58    59    2
    36    58    57    1
    37    50    51    2
    38     3     8   am
    39     3     2    1
    40    57    54    1
    41    42    40   ar
    42    42    43   ar
    43    40    39   ar
    44    61    62    1
    45    61    55   am
    46    54    55    1
    47    35    34    1
    48    35    38    1
    49    62    63    1
    50     2     1    1
    51     2     5    1
    52    43    45   ar
    53    43    41   ar
    54    39    38    1
    55    39    41   ar
    56    55    56    2
    57     6     5    1
    58    45    47   ar
    59    65    63   am
    60    65    66    1
    61    41    44   ar
    62    69    66    1
    63    63    64    2
    64     5     7    1
    65    47    46   ar
    66    66    67    1
    67    44    46   ar
    68    67    68    2
    69    77    75    1
    70    75    74    1
    71    74    76    1
    72    74    71    1
    73    70    71    1
    74    71    72    1
    75    72    73    2
