@<TRIPOS>MOLECULE
tmp/2icaA00.pdb
 213 200 0 0 0
SMALL
GASTEIGER

@<TRIPOS>ATOM
      1  N        -15.6170    2.7500   15.1510 N.3     1  MET1       -0.1245
      2  CA       -14.9220    3.3680   16.3180 C.3     1  MET1        0.1570
      3  C        -13.4110    3.3600   16.1120 C.2     1  MET1        0.2261
      4  O        -12.7100    2.4980   16.6440 O.2     1  MET1       -0.2867
      5  CB       -15.2780    2.6100   17.5930 C.3     1  MET1        0.0387
      6  CG       -14.5120    3.0840   18.8130 C.3     1  MET1        0.0595
      7  SD       -15.0830    2.3390   20.3400 S.3     1  MET1       -0.1393
      8  CE       -16.6840    3.0790   20.5020 C.3     1  MET1        0.0692
      9  N         -9.8740    3.9910   16.8150 N.3     3  VAL3       -0.1245
     10  CA        -9.0190    4.3340   17.9430 C.3     3  VAL3        0.1561
     11  C         -7.5580    4.0610   17.6110 C.2     3  VAL3        0.2260
     12  O         -7.1990    2.9510   17.2190 O.2     3  VAL3       -0.2867
     13  CB        -9.3990    3.5210   19.1970 C.3     3  VAL3        0.0252
     14  CG1       -8.4380    3.8400   20.3370 C.3     3  VAL3        0.0019
     15  CG2      -10.8340    3.8380   19.6040 C.3     3  VAL3        0.0019
     16  N         -4.3100    3.6500   19.4790 N.3     5  LEU5       -0.1245
     17  CA        -3.8400    3.4300   20.8420 C.3     5  LEU5        0.1561
     18  C         -2.3430    3.1510   20.8660 C.2     5  LEU5        0.2260
     19  O         -1.8430    2.3130   20.1120 O.2     5  LEU5       -0.2867
     20  CB        -4.6030    2.2600   21.4790 C.3     5  LEU5        0.0270
     21  CG        -4.3610    1.9900   22.9690 C.3     5  LEU5        0.0019
     22  CD1       -5.6130    1.3790   23.5860 C.3     5  LEU5        0.0001
     23  CD2       -3.1650    1.0620   23.1500 C.3     5  LEU5        0.0001
     24  N          0.8900    2.0390   23.3490 N.3     7  PHE7       -0.1241
     25  CA         1.4360    1.5500   24.6150 C.3     7  PHE7        0.1605
     26  C          2.7750    2.2280   24.8400 C.2     7  PHE7        0.2264
     27  O          3.6440    2.1910   23.9700 O.2     7  PHE7       -0.2867
     28  CB         1.6640    0.0360   24.5720 C.3     7  PHE7        0.0534
     29  CG         0.4110   -0.7710   24.4060 C.ar    7  PHE7       -0.0203
     30  CD1       -0.4640   -0.9470   25.4660 C.ar    7  PHE7       -0.0042
     31  CD2        0.1250   -1.3820   23.1960 C.ar    7  PHE7       -0.0042
     32  CE1       -1.6060   -1.7230   25.3180 C.ar    7  PHE7       -0.0003
     33  CE2       -1.0100   -2.1570   23.0430 C.ar    7  PHE7       -0.0003
     34  CZ        -1.8750   -2.3270   24.1040 C.ar    7  PHE7       -0.0000
     35  N          0.8510   -8.5280   28.3950 N.3    26  PHE26      -0.1241
     36  CA        -0.3560   -7.7230   28.5630 C.3    26  PHE26       0.1605
     37  C         -0.6910   -7.0020   27.2640 C.2    26  PHE26       0.2264
     38  O         -1.8450   -6.9760   26.8320 O.2    26  PHE26      -0.2867
     39  CB        -0.1580   -6.6960   29.6800 C.3    26  PHE26       0.0534
     40  CG        -1.3050   -5.7370   29.8340 C.ar   26  PHE26      -0.0203
     41  CD1       -2.4870   -6.1400   30.4350 C.ar   26  PHE26      -0.0042
     42  CD2       -1.2000   -4.4290   29.3820 C.ar   26  PHE26      -0.0042
     43  CE1       -3.5470   -5.2550   30.5840 C.ar   26  PHE26      -0.0003
     44  CE2       -2.2530   -3.5430   29.5290 C.ar   26  PHE26      -0.0003
     45  CZ        -3.4270   -3.9550   30.1300 C.ar   26  PHE26      -0.0000
     46  N         -4.1130   -7.5380   24.8870 N.3    30  VAL30      -0.1245
     47  CA        -5.0130   -6.4730   24.4630 C.3    30  VAL30       0.1561
     48  C         -5.1310   -6.4200   22.9420 C.2    30  VAL30       0.2260
     49  O         -6.2300   -6.2990   22.4020 O.2    30  VAL30      -0.2867
     50  CB        -4.5320   -5.0950   24.9930 C.3    30  VAL30       0.0252
     51  CG1       -5.3400   -3.9730   24.3640 C.3    30  VAL30       0.0019
     52  CG2       -4.6740   -5.0530   26.5120 C.3    30  VAL30       0.0019
     53  N         -7.1230   -9.3250   21.5260 N.3    33  LYS33      -0.1231
     54  CA        -8.5410   -9.1410   21.8060 C.3    33  LYS33       0.1693
     55  C         -9.1770   -8.1910   20.7950 C.2    33  LYS33       0.2591
     56  O        -10.3540   -8.3260   20.4540 O.2    33  LYS33      -0.2718
     57  CB        -8.7270   -8.5830   23.2200 C.3    33  LYS33       0.0285
     58  CG       -10.1770   -8.3590   23.6110 C.3    33  LYS33       0.0035
     59  CD       -10.9320   -9.6750   23.6790 C.3    33  LYS33       0.0206
     60  CE       -12.4150   -9.4430   23.9230 C.3    33  LYS33       0.1093
     61  NZ       -13.1620  -10.7280   24.0450 N.3    33  LYS33      -0.1314
     62  N         -8.3920   -7.2300   20.3190 N.am   34  LEU34      -0.1980
     63  CA        -8.9140   -6.1770   19.4580 C.3    34  LEU34       0.1596
     64  C         -8.5090   -6.3570   17.9990 C.2    34  LEU34       0.2287
     65  O         -8.5570   -5.4140   17.2110 O.2    34  LEU34      -0.2864
     66  CB        -8.4530   -4.8120   19.9730 C.3    34  LEU34       0.0297
     67  CG        -9.1440   -4.4250   21.2830 C.3    34  LEU34       0.0022
     68  CD1       -8.5010   -3.1920   21.8840 C.3    34  LEU34       0.0001
     69  CD2      -10.6200   -4.1900   21.0090 C.3    34  LEU34       0.0001
     70  N         -9.3760   -0.5590   15.7580 N.3    39  TYR39      -0.1241
     71  CA        -8.1970   -0.1670   16.5230 C.3    39  TYR39       0.1605
     72  C         -6.9250   -0.3230   15.6980 C.2    39  TYR39       0.2264
     73  O         -6.7720   -1.2900   14.9540 O.2    39  TYR39      -0.2867
     74  CB        -8.0750   -1.0170   17.7920 C.3    39  TYR39       0.0534
     75  CG        -8.8670   -0.4990   18.9690 C.ar   39  TYR39      -0.0201
     76  CD1      -10.2540   -0.5450   18.9750 C.ar   39  TYR39      -0.0009
     77  CD2       -8.2230    0.0310   20.0790 C.ar   39  TYR39      -0.0009
     78  CE1      -10.9790   -0.0760   20.0560 C.ar   39  TYR39       0.0417
     79  CE2       -8.9370    0.4990   21.1620 C.ar   39  TYR39       0.0417
     80  CZ       -10.3130    0.4440   21.1470 C.ar   39  TYR39       0.1957
     81  OH       -11.0230    0.9140   22.2270 O.3    39  TYR39      -0.2866
     82  N         -9.7310    8.4790   17.5960 N.3   104  THR104     -0.1218
     83  CA        -9.5620    8.8800   18.9840 C.3   104  THR104      0.1862
     84  C         -8.1930    8.4180   19.4660 C.2   104  THR104      0.2287
     85  O         -7.8310    7.2550   19.2880 O.2   104  THR104     -0.2866
     86  CB       -10.6400    8.2440   19.8710 C.3   104  THR104      0.1770
     87  OG1      -11.9320    8.6670   19.4200 O.3   104  THR104     -0.2211
     88  CG2      -10.4490    8.6550   21.3270 C.3   104  THR104      0.0375
     89  N         -5.4680    7.3760   22.1490 N.3   106  VAL106     -0.1245
     90  CA        -5.3410    6.8140   23.4870 C.3   106  VAL106      0.1561
     91  C         -3.8910    6.4530   23.7770 C.2   106  VAL106      0.2260
     92  O         -3.1960    5.9020   22.9240 O.2   106  VAL106     -0.2867
     93  CB        -6.2040    5.5460   23.6460 C.3   106  VAL106      0.0252
     94  CG1       -6.0290    4.9630   25.0400 C.3   106  VAL106      0.0019
     95  CG2       -7.6670    5.8810   23.3910 C.3   106  VAL106      0.0019
     96  N         -1.6250    4.4430   26.7180 N.3   108  ILE108     -0.1245
     97  CA        -1.5930    3.5930   27.9040 C.3   108  ILE108      0.1561
     98  C         -0.1570    3.5260   28.4040 C.2   108  ILE108      0.2260
     99  O          0.7120    2.9710   27.7320 O.2   108  ILE108     -0.2867
    100  CB        -2.0640    2.1550   27.5830 C.3   108  ILE108      0.0252
    101  CG1       -3.4350    2.1810   26.8930 C.3   108  ILE108      0.0019
    102  CG2       -2.1240    1.3340   28.8620 C.3   108  ILE108      0.0019
    103  CD1       -4.5250    2.9200   27.6690 C.3   108  ILE108      0.0001
    104  N         -6.3310   10.8370   25.4010 N.3   128  ILE128     -0.1245
    105  CA        -6.8870   10.1040   26.5320 C.3   128  ILE128      0.1561
    106  C         -5.7770    9.2410   27.1120 C.2   128  ILE128      0.2260
    107  O         -5.2440    8.3630   26.4320 O.2   128  ILE128     -0.2867
    108  CB        -8.0540    9.1980   26.1000 C.3   128  ILE128      0.0252
    109  CG1       -9.2490   10.0560   25.6770 C.3   128  ILE128      0.0019
    110  CG2       -8.4450    8.2770   27.2380 C.3   128  ILE128      0.0019
    111  CD1       -9.8910   10.7990   26.8300 C.3   128  ILE128      0.0001
    112  N         -4.3130    6.7760   30.1330 N.3   130  TYR130     -0.1241
    113  CA        -4.3590    5.9020   31.3020 C.3   130  TYR130      0.1605
    114  C         -2.9360    5.6280   31.7390 C.2   130  TYR130      0.2264
    115  O         -2.0440    5.4850   30.9050 O.2   130  TYR130     -0.2867
    116  CB        -5.0210    4.5650   30.9630 C.3   130  TYR130      0.0534
    117  CG        -6.5220    4.6200   30.8390 C.ar  130  TYR130     -0.0201
    118  CD1       -7.3350    4.3630   31.9370 C.ar  130  TYR130     -0.0009
    119  CD2       -7.1280    4.9190   29.6250 C.ar  130  TYR130     -0.0009
    120  CE1       -8.7070    4.4010   31.8310 C.ar  130  TYR130      0.0417
    121  CE2       -8.5040    4.9630   29.5080 C.ar  130  TYR130      0.0417
    122  CZ        -9.2870    4.7030   30.6140 C.ar  130  TYR130      0.1957
    123  OH       -10.6570    4.7640   30.5060 O.3   130  TYR130     -0.2866
    124  N         -0.8330    2.9020   34.3320 N.3   132  ILE132     -0.1245
    125  CA        -0.8610    1.7400   35.2020 C.3   132  ILE132      0.1561
    126  C          0.4210    1.7410   36.0260 C.2   132  ILE132      0.2260
    127  O          1.5140    1.5550   35.4900 O.2   132  ILE132     -0.2867
    128  CB        -0.9420    0.4380   34.3710 C.3   132  ILE132      0.0252
    129  CG1       -2.1710    0.4820   33.4580 C.3   132  ILE132      0.0019
    130  CG2       -1.0130   -0.7730   35.2960 C.3   132  ILE132      0.0019
    131  CD1       -2.1980   -0.6140   32.4060 C.3   132  ILE132      0.0001
    132  N        -10.5910    7.0740   37.4830 N.3   157  GLU157     -0.1231
    133  CA       -10.8130    6.2670   36.2870 C.3   157  GLU157      0.1699
    134  C         -9.5070    5.9450   35.5720 C.2   157  GLU157      0.2592
    135  O         -9.2940    4.8180   35.1340 O.2   157  GLU157     -0.2718
    136  CB       -11.7440    6.9920   35.3090 C.3   157  GLU157      0.0402
    137  CG       -11.7200    6.4280   33.8870 C.3   157  GLU157      0.1161
    138  CD       -12.2450    5.0060   33.7990 C.2   157  GLU157      0.3649
    139  OE1      -12.8270    4.5190   34.7920 O.co2 157  GLU157     -0.2457
    140  OE2      -12.0770    4.3740   32.7320 O.co2 157  GLU157     -0.2457
    141  N         -8.6350    6.9400   35.4550 N.am  158  PHE158     -0.1976
    142  CA        -7.5240    6.8480   34.5170 C.3   158  PHE158      0.1639
    143  C         -6.1900    6.4190   35.1190 C.2   158  PHE158      0.2290
    144  O         -5.2280    6.1780   34.3890 O.2   158  PHE158     -0.2864
    145  CB        -7.3750    8.1780   33.7770 C.3   158  PHE158      0.0560
    146  CG        -8.5150    8.4670   32.8410 C.ar  158  PHE158     -0.0200
    147  CD1       -8.5940    7.8220   31.6160 C.ar  158  PHE158     -0.0042
    148  CD2       -9.5250    9.3500   33.1950 C.ar  158  PHE158     -0.0042
    149  CE1       -9.6600    8.0490   30.7620 C.ar  158  PHE158     -0.0003
    150  CE2      -10.5940    9.5810   32.3450 C.ar  158  PHE158     -0.0003
    151  CZ       -10.6620    8.9290   31.1280 C.ar  158  PHE158     -0.0000
    152  N         -4.5860    3.3860   37.2290 N.3   160  LYS160     -0.1245
    153  CA        -4.7650    2.0410   37.7700 C.3   160  LYS160      0.1561
    154  C         -3.5540    1.6950   38.6190 C.2   160  LYS160      0.2260
    155  O         -2.4180    1.8530   38.1760 O.2   160  LYS160     -0.2867
    156  CB        -4.8870    1.0100   36.6420 C.3   160  LYS160      0.0271
    157  CG        -5.8430    1.3870   35.5240 C.3   160  LYS160      0.0035
    158  CD        -7.2720    1.5040   36.0240 C.3   160  LYS160      0.0206
    159  CE        -8.2370    1.6560   34.8600 C.3   160  LYS160      0.1093
    160  NZ        -9.6430    1.8220   35.3250 N.3   160  LYS160     -0.1314
    161  N         -6.1560   -7.3270   35.3450 N.3   171  LEU171     -0.1231
    162  CA        -6.5870   -6.0700   34.7480 C.3   171  LEU171      0.1693
    163  C         -7.1300   -6.3160   33.3470 C.2   171  LEU171      0.2592
    164  O         -8.1710   -5.7790   32.9760 O.2   171  LEU171     -0.2718
    165  CB        -5.4270   -5.0690   34.6860 C.3   171  LEU171      0.0284
    166  CG        -5.7630   -3.7090   34.0630 C.3   171  LEU171      0.0019
    167  CD1       -6.8820   -3.0410   34.8570 C.3   171  LEU171      0.0001
    168  CD2       -4.5160   -2.8310   34.0460 C.3   171  LEU171      0.0001
    169  N         -6.4280   -7.1370   32.5720 N.am  172  PHE172     -0.1976
    170  CA        -6.8860   -7.4650   31.2280 C.3   172  PHE172      0.1639
    171  C         -8.2600   -8.1230   31.2620 C.2   172  PHE172      0.2290
    172  O         -9.1370   -7.7960   30.4640 O.2   172  PHE172     -0.2864
    173  CB        -5.9000   -8.4010   30.5310 C.3   172  PHE172      0.0560
    174  CG        -6.3970   -8.9100   29.2140 C.ar  172  PHE172     -0.0200
    175  CD1       -6.6320   -8.0340   28.1660 C.ar  172  PHE172     -0.0042
    176  CD2       -6.6570  -10.2590   29.0270 C.ar  172  PHE172     -0.0042
    177  CE1       -7.1200   -8.4920   26.9570 C.ar  172  PHE172     -0.0003
    178  CE2       -7.1450  -10.7230   27.8190 C.ar  172  PHE172     -0.0003
    179  CZ        -7.3770   -9.8380   26.7840 C.ar  172  PHE172     -0.0000
    180  N        -10.6740   -5.4120   31.7220 N.3   175  LEU175     -0.1231
    181  CA       -10.7260   -4.5200   30.5660 C.3   175  LEU175      0.1693
    182  C        -11.4430   -5.1630   29.3830 C.2   175  LEU175      0.2591
    183  O        -12.2090   -4.5040   28.6810 O.2   175  LEU175     -0.2718
    184  CB        -9.3110   -4.1180   30.1350 C.3   175  LEU175      0.0284
    185  CG        -8.5040   -3.2340   31.0880 C.3   175  LEU175      0.0019
    186  CD1       -7.0910   -3.0660   30.5450 C.3   175  LEU175      0.0001
    187  CD2       -9.1850   -1.8840   31.2430 C.3   175  LEU175      0.0001
    188  N        -11.1880   -6.4480   29.1640 N.am  176  GLN176     -0.1979
    189  CA       -11.7220   -7.1420   27.9970 C.3   176  GLN176      0.1601
    190  C        -13.2470   -7.1520   28.0050 C.2   176  GLN176      0.2287
    191  O        -13.8840   -7.2240   26.9520 O.2   176  GLN176     -0.2864
    192  CB       -11.1820   -8.5770   27.9490 C.3   176  GLN176      0.0394
    193  CG       -12.2250   -9.6350   27.6380 C.3   176  GLN176      0.0908
    194  CD       -12.9490  -10.1200   28.8790 C.2   176  GLN176      0.2608
    195  OE1      -14.1730  -10.0380   28.9700 O.2   176  GLN176     -0.2717
    196  NE2      -12.1920  -10.6310   29.8430 N.am  176  GLN176     -0.0878
    197  N        -15.0270   -4.7070   28.6950 N.3   178  LYS178     -0.1231
    198  CA       -15.4820   -3.3900   28.2660 C.3   178  LYS178      0.1693
    199  C        -15.5000   -3.2480   26.7470 C.2   178  LYS178      0.2591
    200  O        -15.8100   -2.1800   26.2190 O.2   178  LYS178     -0.2718
    201  CB       -14.5960   -2.3050   28.8840 C.3   178  LYS178      0.0285
    202  CG       -14.6160   -2.3080   30.4020 C.3   178  LYS178      0.0035
    203  CD       -13.8460   -1.1400   30.9940 C.3   178  LYS178      0.0206
    204  CE       -13.9430   -1.1550   32.5120 C.3   178  LYS178      0.1093
    205  NZ       -13.1910   -0.0410   33.1500 N.3   178  LYS178     -0.1314
    206  N        -15.1690   -4.3270   26.0470 N.am  179  ILE179     -0.1980
    207  CA       -15.2480   -4.3440   24.5920 C.3   179  ILE179      0.1595
    208  C        -16.6380   -4.7950   24.1520 C.2   179  ILE179      0.2287
    209  O        -16.7530   -5.8840   23.5500 O.2   179  ILE179     -0.2864
    210  CB       -14.1820   -5.2870   23.9910 C.3   179  ILE179      0.0276
    211  CG1      -12.7900   -4.8420   24.4400 C.3   179  ILE179      0.0022
    212  CG2      -14.2420   -5.2500   22.4710 C.3   179  ILE179      0.0022
    213  CD1      -12.4300   -3.4450   23.9820 C.3   179  ILE179      0.0001
@<TRIPOS>BOND
     1    73    72    2
     2     1     2    1
     3    72    71    1
     4    70    71    1
     5     3     2    1
     6     3     4    2
     7     2     5    1
     8    71    74    1
     9     9    10    1
    10    65    64    2
    11    12    11    2
    12     5     6    1
    13    82    83    1
    14    11    10    1
    15    74    75    1
    16    10    13    1
    17    64    63    1
    18     6     7    1
    19    75    76   ar
    20    75    77   ar
    21    76    78   ar
    22    83    84    1
    23    83    86    1
    24    13    15    1
    25    13    14    1
    26    85    84    2
    27    87    86    1
    28    63    66    1
    29    63    62    1
    30    16    17    1
    31    86    88    1
    32    66    67    1
    33    78    80   ar
    34    77    79   ar
    35    19    18    2
    36    62    55   am
    37     7     8    1
    38    56    55    2
    39    55    54    1
    40    17    18    1
    41    17    20    1
    42    69    67    1
    43    80    79   ar
    44    80    81    1
    45    67    68    1
    46    20    21    1
    47    53    54    1
    48    54    57    1
    49    89    90    1
    50    49    48    2
    51   212   210    1
    52    92    91    2
    53    48    47    1
    54    21    23    1
    55    21    22    1
    56    33    31   ar
    57    33    34   ar
    58    31    29   ar
    59    57    58    1
    60    24    25    1
    61    95    93    1
    62    90    93    1
    63    90    91    1
    64   209   208    2
    65    58    59    1
    66    93    94    1
    67    59    60    1
    68    60    61    1
    69    27    26    2
    70   213   211    1
    71   210   211    1
    72   210   207    1
    73    34    32   ar
    74   208   207    1
    75    51    50    1
    76    29    28    1
    77    29    30   ar
    78    47    46    1
    79    47    50    1
    80    28    25    1
    81   207   206    1
    82    25    26    1
    83    50    52    1
    84    32    30   ar
    85   104   105    1
    86   109   108    1
    87   109   111    1
    88   206   199   am
    89   108   105    1
    90   108   110    1
    91   200   199    2
    92   107   106    2
    93   105   106    1
    94    96    97    1
    95   199   198    1
    96   179   177   ar
    97   179   178   ar
    98    38    37    2
    99   101   100    1
   100   101   103    1
   101   191   190    2
   102   177   175   ar
   103    37    36    1
   104   100    97    1
   105   100   102    1
   106   193   192    1
   107   193   194    1
   108    99    98    2
   109   178   176   ar
   110    97    98    1
   111   192   189    1
   112   189   190    1
   113   189   188    1
   114   175   174   ar
   115   198   197    1
   116   198   201    1
   117    35    36    1
   118    36    39    1
   119   183   182    2
   120   194   195    2
   121   194   196   am
   122   201   202    1
   123   176   174   ar
   124   188   182   am
   125   174   173    1
   126    42    44   ar
   127    42    40   ar
   128   182   181    1
   129   121   119   ar
   130   121   122   ar
   131    44    45   ar
   132   119   117   ar
   133    39    40    1
   134    40    41   ar
   135    45    43   ar
   136   112   113    1
   137   184   181    1
   138   184   185    1
   139   202   203    1
   140    41    43   ar
   141   172   171    2
   142   123   122    1
   143   173   170    1
   144   186   185    1
   145   181   180    1
   146   122   120   ar
   147   149   151   ar
   148   149   147   ar
   149   117   116    1
   150   117   118   ar
   151   115   114    2
   152   116   113    1
   153   203   204    1
   154   185   187    1
   155   151   150   ar
   156   170   171    1
   157   170   169    1
   158   113   114    1
   159   147   146   ar
   160   120   118   ar
   161   150   148   ar
   162   131   129    1
   163   204   205    1
   164   169   163   am
   165   140   138   ar
   166   146   148   ar
   167   146   145    1
   168   164   163    2
   169   163   162    1
   170   129   128    1
   171   145   142    1
   172   138   137    1
   173   138   139   ar
   174   137   136    1
   175   168   166    1
   176   166   165    1
   177   166   167    1
   178   124   125    1
   179   128   125    1
   180   128   130    1
   181   144   143    2
   182   142   143    1
   183   142   141    1
   184   165   162    1
   185   162   161    1
   186   159   160    1
   187   159   158    1
   188   135   134    2
   189   125   126    1
   190   136   133    1
   191   141   134   am
   192   127   126    2
   193   157   158    1
   194   157   156    1
   195   134   133    1
   196   133   132    1
   197   156   153    1
   198   152   153    1
   199   153   154    1
   200   155   154    2
