@<TRIPOS>MOLECULE
tmp/2icfA00.pdb
 88 81 0 0 0
SMALL
GASTEIGER

@<TRIPOS>ATOM
      1  N         23.6150   34.6140   15.1770 N.3    19  THR19      -0.1218
      2  CA        24.0390   33.5440   16.0660 C.3    19  THR19       0.1862
      3  C         22.9360   32.5000   16.1770 C.2    19  THR19       0.2287
      4  O         21.7860   32.7650   15.8370 O.2    19  THR19      -0.2866
      5  CB        24.3210   34.1200   17.4700 C.3    19  THR19       0.1770
      6  OG1       25.1820   35.2610   17.3560 O.3    19  THR19      -0.2211
      7  CG2       24.9640   33.0920   18.3880 C.3    19  THR19       0.0375
      8  N         30.1700   23.5080   30.4110 N.3    58  THR58      -0.1218
      9  CA        29.2050   24.6160   30.3850 C.3    58  THR58       0.1862
     10  C         27.7640   24.1090   30.6460 C.2    58  THR58       0.2287
     11  O         26.8060   24.8740   30.6190 O.2    58  THR58      -0.2866
     12  CB        29.2660   25.3650   29.0240 C.3    58  THR58       0.1770
     13  OG1       29.2800   24.4110   27.9510 O.3    58  THR58      -0.2211
     14  CG2       30.5340   26.2190   28.9240 C.3    58  THR58       0.0375
     15  N         26.1350   23.5490   26.5550 N.3    61  MET61      -0.1230
     16  CA        25.6380   24.7180   25.8210 C.3    61  MET61       0.1702
     17  C         26.7680   25.3690   25.0210 C.2    61  MET61       0.2593
     18  O         27.8850   25.5590   25.5090 O.2    61  MET61      -0.2718
     19  CB        25.0040   25.7460   26.7750 C.3    61  MET61       0.0401
     20  CG        23.7120   26.3950   26.2480 C.3    61  MET61       0.0596
     21  SD        23.2430   27.9400   27.0680 S.3    61  MET61      -0.1393
     22  CE        24.2280   29.1300   26.1500 C.3    61  MET61       0.0692
     23  N         26.4550   25.6900   23.7740 N.am   62  GLY62      -0.1942
     24  CA        27.3550   26.4350   22.9070 C.3    62  GLY62       0.2014
     25  C         26.5680   27.0840   21.7820 C.2    62  GLY62       0.2638
     26  O         25.3270   27.1060   21.8000 O.2    62  GLY62      -0.2714
     27  N         27.2830   27.6230   20.8010 N.am   63  ASN63      -0.1972
     28  CA        26.6270   28.2060   19.6430 C.3    63  ASN63       0.1688
     29  C         27.5790   28.3570   18.4700 C.2    63  ASN63       0.2292
     30  O         28.7480   27.9820   18.5490 O.2    63  ASN63      -0.2864
     31  CB        25.9620   29.5460   20.0070 C.3    63  ASN63       0.1181
     32  CG        26.9630   30.6640   20.2460 C.2    63  ASN63       0.2629
     33  OD1       27.9240   30.8350   19.4890 O.2    63  ASN63      -0.2716
     34  ND2       26.7210   31.4550   21.2920 N.am   63  ASN63      -0.0877
     35  N         28.0550   31.1290   14.7970 N.3    65  THR65      -0.1218
     36  CA        27.6260   32.3920   14.1910 C.3    65  THR65       0.1862
     37  C         28.0220   32.4810   12.7280 C.2    65  THR65       0.2287
     38  O         29.1940   32.3230   12.3800 O.2    65  THR65      -0.2866
     39  CB        28.2530   33.6070   14.8910 C.3    65  THR65       0.1770
     40  OG1       29.5250   33.9030   14.2910 O.3    65  THR65      -0.2211
     41  CG2       28.4220   33.3600   16.3970 C.3    65  THR65       0.0375
     42  N         20.3730   37.7570   18.2650 N.3   478  LEU478     -0.1231
     43  CA        20.6560   37.2850   19.6120 C.3   478  LEU478      0.1693
     44  C         21.8990   37.9890   20.1490 C.2   478  LEU478      0.2592
     45  O         22.9920   37.8700   19.5760 O.2   478  LEU478     -0.2718
     46  CB        20.8510   35.7590   19.6380 C.3   478  LEU478      0.0284
     47  CG        19.5760   34.9100   19.7190 C.3   478  LEU478      0.0019
     48  CD1       19.8660   33.4580   19.3860 C.3   478  LEU478      0.0001
     49  CD2       18.9420   35.0240   21.0960 C.3   478  LEU478      0.0001
     50  N         21.7210   38.7210   21.2460 N.am  479  LEU479     -0.1966
     51  CA        22.8310   39.3790   21.9090 C.3   479  LEU479      0.1728
     52  C         23.6250   38.3800   22.7510 C.2   479  LEU479      0.2616
     53  O         24.8320   38.2150   22.5780 O.2   479  LEU479     -0.2715
     54  CB        22.3150   40.5140   22.7860 C.3   479  LEU479      0.0311
     55  CG        23.3860   41.4370   23.3680 C.3   479  LEU479      0.0022
     56  CD1       24.4090   41.8470   22.3120 C.3   479  LEU479      0.0001
     57  CD2       22.7530   42.6700   23.9960 C.3   479  LEU479      0.0001
     58  N         22.9310   37.7010   23.6540 N.am  480  LYS480     -0.1963
     59  CA        23.5700   36.7430   24.5500 C.3   480  LYS480      0.1728
     60  C         22.5570   35.7060   25.0270 C.2   480  LYS480      0.2616
     61  O         21.3460   35.9530   25.0660 O.2   480  LYS480     -0.2715
     62  CB        24.2190   37.4880   25.7330 C.3   480  LYS480      0.0311
     63  CG        24.5310   36.6660   27.0170 C.3   480  LYS480      0.0038
     64  CD        25.5700   37.3990   27.9090 C.3   480  LYS480      0.0206
     65  CE        25.4410   37.0990   29.4140 C.3   480  LYS480      0.1093
     66  NZ        24.9300   38.2700   30.2060 N.3   480  LYS480     -0.1314
     67  N         23.0730   34.5330   25.3580 N.am  481  ALA481     -0.1963
     68  CA        22.2740   33.4850   25.9400 C.3   481  ALA481      0.1728
     69  C         23.1640   32.6900   26.8720 C.2   481  ALA481      0.2616
     70  O         24.3220   32.4130   26.5460 O.2   481  ALA481     -0.2715
     71  CB        21.7070   32.5980   24.8550 C.3   481  ALA481      0.0334
     72  N         22.6200   32.3450   28.0360 N.am  482  GLY482     -0.1955
     73  CA        23.3190   31.5090   29.0120 C.3   482  GLY482      0.1869
     74  C         22.3690   30.6280   29.8060 C.2   482  GLY482      0.2309
     75  O         21.2770   30.2860   29.3430 O.2   482  GLY482     -0.2863
     76  N         23.7780   41.9110   33.7990 N.3   498  SER498     -0.1217
     77  CA        24.5720   43.1140   33.5870 C.3   498  SER498      0.1889
     78  C         24.1490   43.8070   32.2900 C.2   498  SER498      0.2288
     79  O         24.0590   43.1740   31.2400 O.2   498  SER498     -0.2866
     80  CB        26.0550   42.7280   33.5630 C.3   498  SER498      0.2089
     81  OG        26.2110   41.3440   33.2460 O.3   498  SER498     -0.2183
     82  N         24.6380   46.6750   29.4360 N.3   500  THR500     -0.1218
     83  CA        25.6780   47.4770   28.7580 C.3   500  THR500      0.1862
     84  C         25.1490   48.1890   27.5150 C.2   500  THR500      0.2287
     85  O         24.0350   47.9400   27.0750 O.2   500  THR500     -0.2866
     86  CB        26.8220   46.5970   28.2360 C.3   500  THR500      0.1770
     87  OG1       26.6680   46.4270   26.8200 O.3   500  THR500     -0.2211
     88  CG2       26.8530   45.2120   28.9150 C.3   500  THR500      0.0375
@<TRIPOS>BOND
     1    38    37    2
     2    37    36    1
     3    36    35    1
     4    36    39    1
     5    40    39    1
     6    39    41    1
     7     1     2    1
     8     4     3    2
     9     2     3    1
    10     2     5    1
    11     6     5    1
    12     5     7    1
    13    42    43    1
    14    29    30    2
    15    29    28    1
    16    48    47    1
    17    33    32    2
    18    45    44    2
    19    43    46    1
    20    43    44    1
    21    46    47    1
    22    28    31    1
    23    28    27    1
    24    47    49    1
    25    31    32    1
    26    44    50   am
    27    32    34   am
    28    27    25   am
    29    50    51    1
    30    25    26    2
    31    25    24    1
    32    51    52    1
    33    51    54    1
    34    56    55    1
    35    53    52    2
    36    52    58   am
    37    54    55    1
    38    24    23    1
    39    55    57    1
    40    58    59    1
    41    23    17   am
    42    59    60    1
    43    59    62    1
    44    71    68    1
    45    17    18    2
    46    17    16    1
    47    60    61    2
    48    60    67   am
    49    67    68    1
    50    62    63    1
    51    16    15    1
    52    16    19    1
    53    68    69    1
    54    22    21    1
    55    20    19    1
    56    20    21    1
    57    70    69    2
    58    87    86    1
    59    69    72   am
    60    63    64    1
    61    85    84    2
    62    84    83    1
    63    64    65    1
    64    13    12    1
    65    72    73    1
    66    86    83    1
    67    86    88    1
    68    83    82    1
    69    14    12    1
    70    73    74    1
    71    12     9    1
    72    75    74    2
    73    65    66    1
    74     9     8    1
    75     9    10    1
    76    11    10    2
    77    79    78    2
    78    78    77    1
    79    81    80    1
    80    80    77    1
    81    77    76    1
