@<TRIPOS>MOLECULE
tmp/2ichB00.pdb
 134 131 0 0 0
SMALL
GASTEIGER

@<TRIPOS>ATOM
      1  N         15.9560   22.7640   48.9290 N.3    24  ILE24      -0.1245
      2  CA        16.6170   23.9940   48.5810 C.3    24  ILE24       0.1561
      3  C         17.9770   24.0240   49.2460 C.2    24  ILE24       0.2260
      4  O         18.0520   23.7510   50.4410 O.2    24  ILE24      -0.2867
      5  CB        15.7800   25.1730   49.1740 C.3    24  ILE24       0.0252
      6  CG1       14.3490   25.1720   48.6330 C.3    24  ILE24       0.0019
      7  CG2       16.4140   26.4870   48.9050 C.3    24  ILE24       0.0019
      8  CD1       13.3950   26.0040   49.5480 C.3    24  ILE24       0.0001
      9  N         21.7600   26.5980   49.2460 N.3    26  TRP26      -0.1241
     10  CA        22.5330   27.7550   48.7760 C.3    26  TRP26       0.1605
     11  C         23.9900   27.7140   49.1430 C.2    26  TRP26       0.2264
     12  O         24.3590   27.2950   50.2760 O.2    26  TRP26      -0.2867
     13  CB        22.0020   29.0590   49.4400 C.3    26  TRP26       0.0550
     14  CG        20.6050   29.3630   49.1380 C.ar   26  TRP26       0.0003
     15  CD1       19.4910   28.7800   49.6810 C.ar   26  TRP26       0.0946
     16  CD2       20.1430   30.3440   48.2090 C.ar   26  TRP26       0.0152
     17  NE1       18.3530   29.3160   49.0980 N.ar   26  TRP26      -0.2442
     18  CE2       18.7380   30.3120   48.2260 C.ar   26  TRP26       0.0810
     19  CE3       20.7890   31.2590   47.3620 C.ar   26  TRP26       0.0012
     20  CZ2       17.9610   31.1540   47.4040 C.ar   26  TRP26       0.0191
     21  CZ3       20.0140   32.0880   46.5490 C.ar   26  TRP26       0.0001
     22  CH2       18.6210   32.0280   46.5840 C.ar   26  TRP26       0.0015
     23  N         13.0160   32.1540   59.4650 N.3   145  LYS145     -0.1245
     24  CA        12.8990   33.1960   58.4510 C.3   145  LYS145      0.1561
     25  C         11.4470   33.6470   58.2860 C.2   145  LYS145      0.2260
     26  O         11.1430   34.4040   57.3780 O.2   145  LYS145     -0.2867
     27  CB        13.4670   32.7290   57.1190 C.3   145  LYS145      0.0271
     28  CG        12.8810   31.4060   56.5990 C.3   145  LYS145      0.0035
     29  CD        13.6130   30.7970   55.3620 C.3   145  LYS145      0.0206
     30  CE        13.0120   29.4360   55.0320 C.3   145  LYS145      0.1093
     31  NZ        13.6790   28.6450   53.9790 N.3   145  LYS145     -0.1314
     32  N         21.5690   26.6560   58.6910 N.3   155  TYR155     -0.1241
     33  CA        22.3030   27.8460   58.2520 C.3   155  TYR155      0.1605
     34  C         23.5980   28.0880   59.0340 C.2   155  TYR155      0.2264
     35  O         23.5890   28.1850   60.2660 O.2   155  TYR155     -0.2867
     36  CB        21.3640   29.0500   58.4140 C.3   155  TYR155      0.0534
     37  CG        21.6240   30.2700   57.5810 C.ar  155  TYR155     -0.0201
     38  CD1       22.8810   30.5260   56.9770 C.ar  155  TYR155     -0.0009
     39  CD2       20.6260   31.1830   57.4030 C.ar  155  TYR155     -0.0009
     40  CE1       23.0970   31.6770   56.2500 C.ar  155  TYR155      0.0417
     41  CE2       20.8340   32.3460   56.6340 C.ar  155  TYR155      0.0417
     42  CZ        22.0540   32.5830   56.0800 C.ar  155  TYR155      0.1957
     43  OH        22.2190   33.7230   55.3540 O.3   155  TYR155     -0.2866
     44  N         23.1660   27.3860   53.4290 N.3   185  GLU185     -0.1245
     45  CA        21.7850   27.3080   53.8980 C.3   185  GLU185      0.1567
     46  C         21.0000   26.2270   53.1490 C.2   185  GLU185      0.2260
     47  O         21.0070   26.1560   51.9040 O.2   185  GLU185     -0.2867
     48  CB        21.1060   28.6670   53.6890 C.3   185  GLU185      0.0388
     49  CG        19.7070   28.7190   54.1990 C.3   185  GLU185      0.1160
     50  CD        18.9380   29.9540   53.7650 C.2   185  GLU185      0.3649
     51  OE1       19.5750   30.8920   53.2170 O.co2 185  GLU185     -0.2457
     52  OE2       17.6830   29.9680   53.9750 O.co2 185  GLU185     -0.2457
     53  N         17.0040   23.9440   53.2500 N.3   187  SER187     -0.1217
     54  CA        15.6930   23.8770   53.7910 C.3   187  SER187      0.1889
     55  C         14.7320   23.1090   52.8850 C.2   187  SER187      0.2288
     56  O         15.0570   22.7520   51.7600 O.2   187  SER187     -0.2866
     57  CB        15.1460   25.3020   53.9950 C.3   187  SER187      0.2089
     58  OG        14.7780   25.9290   52.7730 O.3   187  SER187     -0.2183
     59  N         10.5780   27.3390   50.6820 N.3   190  TYR190     -0.1227
     60  CA        10.9740   28.6940   50.3650 C.3   190  TYR190      0.1736
     61  C         10.3990   29.6540   51.3770 C.2   190  TYR190      0.2595
     62  O          9.5730   29.2810   52.2160 O.2   190  TYR190     -0.2718
     63  CB        10.4420   29.1070   49.0100 C.3   190  TYR190      0.0548
     64  CG        11.0320   28.3770   47.8390 C.ar  190  TYR190     -0.0200
     65  CD1       12.2980   28.6860   47.3680 C.ar  190  TYR190     -0.0009
     66  CD2       10.2920   27.4060   47.1640 C.ar  190  TYR190     -0.0009
     67  CE1       12.8170   28.0190   46.2570 C.ar  190  TYR190      0.0417
     68  CE2       10.8040   26.7400   46.0810 C.ar  190  TYR190      0.0417
     69  CZ        12.0490   27.0520   45.6250 C.ar  190  TYR190      0.1957
     70  OH        12.5080   26.3900   44.5200 O.3   190  TYR190     -0.2866
     71  N         10.8230   30.9060   51.2680 N.am  191  LEU191     -0.1980
     72  CA        10.1940   31.9910   52.0000 C.3   191  LEU191      0.1596
     73  C          8.7080   32.0040   51.7770 C.2   191  LEU191      0.2287
     74  O          8.2570   31.7480   50.6780 O.2   191  LEU191     -0.2864
     75  CB        10.7000   33.3530   51.5090 C.3   191  LEU191      0.0297
     76  CG        11.9030   33.9760   52.1650 C.3   191  LEU191      0.0022
     77  CD1       12.0370   35.3600   51.5800 C.3   191  LEU191      0.0001
     78  CD2       11.7380   34.0240   53.6720 C.3   191  LEU191      0.0001
     79  N         13.5660   40.2160   50.4100 N.3   198  TRP198     -0.1241
     80  CA        14.4120   40.3260   51.5880 C.3   198  TRP198      0.1605
     81  C         15.5010   41.3740   51.3930 C.2   198  TRP198      0.2264
     82  O         15.7170   41.8450   50.2650 O.2   198  TRP198     -0.2867
     83  CB        14.9870   38.9560   51.9760 C.3   198  TRP198      0.0550
     84  CG        16.0710   38.4320   51.1390 C.ar  198  TRP198      0.0003
     85  CD1       17.3900   38.8310   51.1390 C.ar  198  TRP198      0.0946
     86  CD2       15.9740   37.3540   50.2140 C.ar  198  TRP198      0.0152
     87  NE1       18.0960   38.0820   50.2350 N.ar  198  TRP198     -0.2442
     88  CE2       17.2570   37.1670   49.6540 C.ar  198  TRP198      0.0810
     89  CE3       14.9180   36.5470   49.7700 C.ar  198  TRP198      0.0012
     90  CZ2       17.5210   36.1740   48.6990 C.ar  198  TRP198      0.0191
     91  CZ3       15.1760   35.5850   48.7820 C.ar  198  TRP198      0.0001
     92  CH2       16.4610   35.4040   48.2690 C.ar  198  TRP198      0.0015
     93  N         19.4210   41.5780   53.0370 N.3   200  TRP200     -0.1241
     94  CA        20.4500   40.8170   53.7250 C.3   200  TRP200      0.1605
     95  C         21.7740   41.5350   53.6710 C.2   200  TRP200      0.2264
     96  O         22.1030   42.1180   52.6370 O.2   200  TRP200     -0.2867
     97  CB        20.6220   39.4730   53.0070 C.3   200  TRP200      0.0550
     98  CG        21.7030   38.5970   53.5450 C.ar  200  TRP200      0.0003
     99  CD1       21.5660   37.5870   54.4920 C.ar  200  TRP200      0.0946
    100  CD2       23.0880   38.5910   53.1520 C.ar  200  TRP200      0.0152
    101  NE1       22.7850   36.9650   54.6840 N.ar  200  TRP200     -0.2442
    102  CE2       23.7220   37.5450   53.8660 C.ar  200  TRP200      0.0810
    103  CE3       23.8560   39.3540   52.2480 C.ar  200  TRP200      0.0012
    104  CZ2       25.0750   37.2910   53.7550 C.ar  200  TRP200      0.0191
    105  CZ3       25.1930   39.0690   52.1140 C.ar  200  TRP200      0.0001
    106  CH2       25.7940   38.0440   52.8940 C.ar  200  TRP200      0.0015
    107  N         19.2830   40.1640   58.5160 N.3   213  PHE213     -0.1241
    108  CA        18.3170   40.3100   57.4420 C.3   213  PHE213      0.1605
    109  C         16.9400   40.6980   57.8830 C.2   213  PHE213      0.2264
    110  O         16.6230   40.6230   59.0500 O.2   213  PHE213     -0.2867
    111  CB        18.2210   39.0380   56.5420 C.3   213  PHE213      0.0534
    112  CG        17.6550   37.8530   57.2290 C.ar  213  PHE213     -0.0203
    113  CD1       16.2770   37.6770   57.3010 C.ar  213  PHE213     -0.0042
    114  CD2       18.4720   36.9340   57.8510 C.ar  213  PHE213     -0.0042
    115  CE1       15.7270   36.6160   57.9970 C.ar  213  PHE213     -0.0003
    116  CE2       17.9270   35.8370   58.5530 C.ar  213  PHE213     -0.0003
    117  CZ        16.5770   35.6710   58.6200 C.ar  213  PHE213     -0.0000
    118  N         12.7120   40.3830   56.2640 N.3   215  ILE215     -0.1245
    119  CA        11.8280   39.8620   55.2800 C.3   215  ILE215      0.1561
    120  C         10.6710   40.8360   55.2390 C.2   215  ILE215      0.2260
    121  O          9.9740   41.0490   56.2710 O.2   215  ILE215     -0.2867
    122  CB        11.2770   38.4610   55.6560 C.3   215  ILE215      0.0252
    123  CG1       12.3650   37.4700   56.0430 C.3   215  ILE215      0.0019
    124  CG2       10.3810   37.9390   54.5210 C.3   215  ILE215      0.0019
    125  CD1       13.4620   37.1540   54.9380 C.3   215  ILE215      0.0001
    126  N         22.4300   42.4140   49.9070 N.3   313  GLU313     -0.1245
    127  CA        21.5850   41.7870   48.8890 C.3   313  GLU313      0.1567
    128  C         20.1600   42.1630   49.1350 C.2   313  GLU313      0.2260
    129  O         19.6520   42.0160   50.2820 O.2   313  GLU313     -0.2867
    130  CB        21.7350   40.2700   48.9500 C.3   313  GLU313      0.0388
    131  CG        20.9660   39.4660   47.9020 C.3   313  GLU313      0.1160
    132  CD        21.1620   37.9540   48.0610 C.2   313  GLU313      0.3649
    133  OE1       20.8150   37.4490   49.1500 O.co2 313  GLU313     -0.2457
    134  OE2       21.6600   37.2960   47.1060 O.co2 313  GLU313     -0.2457
@<TRIPOS>BOND
     1    70    69    1
     2    69    68   ar
     3    69    67   ar
     4    68    66   ar
     5    67    65   ar
     6    21    22   ar
     7    21    19   ar
     8    22    20   ar
     9   134   132   ar
    10    66    64   ar
    11    19    16   ar
    12    65    64   ar
    13    20    18   ar
    14    64    63    1
    15   131   132    1
    16   131   130    1
    17   132   133   ar
    18    16    18   ar
    19    16    14   ar
    20    18    17   ar
    21    92    90   ar
    22    92    91   ar
    23     2     1    1
    24     2     5    1
    25     2     3    1
    26     6     5    1
    27     6     8    1
    28    90    88   ar
    29    10    11    1
    30    10     9    1
    31    10    13    1
    32    91    89   ar
    33   127   130    1
    34   127   128    1
    35   127   126    1
    36     7     5    1
    37    63    60    1
    38    17    15   ar
    39   128   129    2
    40    14    13    1
    41    14    15   ar
    42    11    12    2
    43     3     4    2
    44    88    86   ar
    45    88    87   ar
    46    89    86   ar
    47    86    84   ar
    48    87    85   ar
    49    82    81    2
    50    60    59    1
    51    60    61    1
    52    79    80    1
    53    74    73    2
    54    85    84   ar
    55    84    83    1
    56    71    61   am
    57    71    72    1
    58    61    62    2
    59    81    80    1
    60    75    72    1
    61    75    76    1
    62    77    76    1
    63    80    83    1
    64    56    55    2
    65    73    72    1
    66    47    46    2
    67   105   103   ar
    68   105   106   ar
    69    76    78    1
    70   103   100   ar
    71    96    95    2
    72    58    57    1
    73    55    54    1
    74   106   104   ar
    75    97    98    1
    76    97    94    1
    77    93    94    1
    78    46    45    1
    79   100    98   ar
    80   100   102   ar
    81    51    50   ar
    82    53    54    1
    83    44    45    1
    84    98    99   ar
    85    95    94    1
    86    48    45    1
    87    48    49    1
    88   104   102   ar
    89    50    52   ar
    90    50    49    1
    91    54    57    1
    92   102   101   ar
    93    31    30    1
    94    99   101   ar
    95   124   122    1
    96   125   123    1
    97    30    29    1
    98   120   119    1
    99   120   121    2
   100   119   122    1
   101   119   118    1
   102    43    42    1
   103    29    28    1
   104   122   123    1
   105    42    40   ar
   106    42    41   ar
   107    40    38   ar
   108   111   112    1
   109   111   108    1
   110    28    27    1
   111    41    39   ar
   112    38    37   ar
   113    27    24    1
   114   112   113   ar
   115   112   114   ar
   116   113   115   ar
   117    26    25    2
   118    39    37   ar
   119   108   109    1
   120   108   107    1
   121    37    36    1
   122   114   116   ar
   123   109   110    2
   124   115   117   ar
   125    33    36    1
   126    33    32    1
   127    33    34    1
   128    25    24    1
   129    24    23    1
   130   116   117   ar
   131    34    35    2
