@<TRIPOS>MOLECULE
tmp/2ickA00.pdb
 188 177 0 0 0
SMALL
GASTEIGER

@<TRIPOS>ATOM
      1  N          5.9110   16.0760   34.1530 N.3     6  GLN6       -0.1245
      2  CA         7.0190   15.1300   33.9970 C.3     6  GLN6        0.1566
      3  C          7.8240   15.5100   32.7560 C.2     6  GLN6        0.2260
      4  O          9.0510   15.3700   32.7120 O.2     6  GLN6       -0.2867
      5  CB         6.4660   13.7060   33.8930 C.3     6  GLN6        0.0367
      6  CG         5.9090   13.2120   35.2420 C.3     6  GLN6        0.0905
      7  CD         6.9520   13.2670   36.3600 C.2     6  GLN6        0.2608
      8  OE1        8.0480   12.7090   36.2330 O.2     6  GLN6       -0.2717
      9  NE2        6.6170   13.9440   37.4590 N.am    6  GLN6       -0.0878
     10  N         10.2770   18.1020   33.5630 N.3     9  LEU9       -0.1245
     11  CA        11.4390   17.5790   34.2820 C.3     9  LEU9        0.1561
     12  C         12.4410   16.9100   33.3480 C.2     9  LEU9        0.2260
     13  O         13.5850   16.6680   33.7410 O.2     9  LEU9       -0.2867
     14  CB        11.0240   16.5530   35.3410 C.3     9  LEU9        0.0270
     15  CG        10.1910   17.0160   36.5310 C.3     9  LEU9        0.0019
     16  CD1        9.8570   15.8110   37.3840 C.3     9  LEU9        0.0001
     17  CD2       10.9760   18.0430   37.3530 C.3     9  LEU9        0.0001
     18  N         15.8820   18.6370   32.9270 N.3    12  GLU12      -0.1245
     19  CA        16.9160   18.7100   33.9640 C.3    12  GLU12       0.1567
     20  C         18.2530   18.1830   33.4050 C.2    12  GLU12       0.2260
     21  O         18.2480   17.2460   32.5990 O.2    12  GLU12      -0.2867
     22  CB        16.5110   17.8620   35.1680 C.3    12  GLU12       0.0388
     23  CG        15.3160   18.3930   35.9460 C.3    12  GLU12       0.1160
     24  CD        15.1260   17.6420   37.2610 C.2    12  GLU12       0.3649
     25  OE1       15.4030   16.4270   37.3180 O.co2  12  GLU12      -0.2457
     26  OE2       14.6950   18.2760   38.2330 O.co2  12  GLU12      -0.2457
     27  N         17.9400   14.9240   31.0110 N.3    29  LYS29      -0.1245
     28  CA        17.2970   13.7040   31.4790 C.3    29  LYS29       0.1561
     29  C         16.6070   12.9730   30.3050 C.2    29  LYS29       0.2260
     30  O         16.6410   11.7550   30.2410 O.2    29  LYS29      -0.2867
     31  CB        16.2670   14.0450   32.5510 C.3    29  LYS29       0.0271
     32  CG        15.4830   12.8670   33.0840 C.3    29  LYS29       0.0035
     33  CD        14.4890   13.3600   34.1230 C.3    29  LYS29       0.0206
     34  CE        13.5920   12.2600   34.6910 C.3    29  LYS29       0.1093
     35  NZ        12.6290   12.9000   35.6780 N.3    29  LYS29      -0.1314
     36  N         17.6830    9.0840   28.9910 N.3    33  HIS33      -0.1241
     37  CA        16.7570    7.9790   29.1050 C.3    33  HIS33       0.1621
     38  C         16.1810    7.4440   27.7940 C.2    33  HIS33       0.2264
     39  O         15.2130    6.6890   27.8140 O.2    33  HIS33      -0.2867
     40  CB        15.6280    8.3430   30.0780 C.3    33  HIS33       0.0745
     41  CG        16.1060    8.5110   31.4910 C.ar   33  HIS33       0.0817
     42  ND1       16.7150    9.6640   31.9340 N.ar   33  HIS33      -0.2268
     43  CD2       16.1920    7.6260   32.5130 C.ar   33  HIS33       0.1154
     44  CE1       17.1580    9.4810   33.1660 C.ar   33  HIS33       0.1986
     45  NE2       16.8520    8.2540   33.5420 N.ar   33  HIS33      -0.2212
     46  N         23.1980    8.2090   39.2240 N.3    46  ALA46      -0.1231
     47  CA        21.9020    8.2570   39.9010 C.3    46  ALA46       0.1694
     48  C         22.0550    7.7630   41.3300 C.2    46  ALA46       0.2592
     49  O         23.1690    7.4030   41.7700 O.2    46  ALA46      -0.2718
     50  CB        20.8790    7.3630   39.1530 C.3    46  ALA46       0.0304
     51  N         20.9470    7.7940   42.0720 N.am   47  PHE47      -0.1962
     52  CA        20.9300    7.2690   43.4450 C.3    47  PHE47       0.1771
     53  C         19.5820    6.6010   43.7270 C.2    47  PHE47       0.2620
     54  O         18.5860    6.8840   43.0680 O.2    47  PHE47      -0.2715
     55  CB        21.1960    8.3930   44.4920 C.3    47  PHE47       0.0574
     56  CG        20.1180    9.4540   44.5410 C.ar   47  PHE47      -0.0200
     57  CD1       18.9560    9.2600   45.2810 C.ar   47  PHE47      -0.0042
     58  CD2       20.2450   10.6280   43.7880 C.ar   47  PHE47      -0.0042
     59  CE1       17.9200   10.2130   45.2690 C.ar   47  PHE47      -0.0003
     60  CE2       19.2090   11.5890   43.7680 C.ar   47  PHE47      -0.0003
     61  CZ        18.0390   11.3700   44.5160 C.ar   47  PHE47      -0.0000
     62  N         19.5810    5.7020   44.7110 N.am   48  SER48      -0.1950
     63  CA        18.3900    4.9770   45.1460 C.3    48  SER48       0.1924
     64  C         18.3950    5.0140   46.6730 C.2    48  SER48       0.2314
     65  O         19.3530    4.5710   47.2910 O.2    48  SER48      -0.2863
     66  CB        18.4470    3.5210   44.6820 C.3    48  SER48       0.2116
     67  OG        18.0650    3.4100   43.3260 O.3    48  SER48      -0.2180
     68  N          5.1760    4.2980   41.8440 N.3    63  ARG63      -0.1245
     69  CA         5.3330    5.4170   40.9250 C.3    63  ARG63       0.1563
     70  C          3.9860    5.7540   40.2830 C.2    63  ARG63       0.2260
     71  O          3.2230    4.8580   39.9130 O.2    63  ARG63      -0.2867
     72  CB         6.3530    5.0690   39.8360 C.3    63  ARG63       0.0307
     73  CG         7.7810    4.8460   40.3620 C.3    63  ARG63       0.0489
     74  CD         8.6700    4.1930   39.2870 C.3    63  ARG63       0.2205
     75  NE         8.9860    5.0550   38.1480 N.pl3  63  ARG63      -0.0865
     76  CZ         9.8890    6.0280   38.1650 C.cat  63  ARG63       0.5346
     77  NH1       10.5780    6.2830   39.2720 N.pl3  63  ARG63       0.1354
     78  NH2       10.1230    6.7390   37.0630 N.pl3  63  ARG63       0.1354
     79  N          4.7640    9.0700   35.4620 N.3    67  LYS67      -0.1245
     80  CA         6.2000    8.8960   35.3010 C.3    67  LYS67       0.1561
     81  C          6.4490    8.3440   33.9070 C.2    67  LYS67       0.2260
     82  O          5.7830    7.4030   33.4750 O.2    67  LYS67      -0.2867
     83  CB         6.7470    7.9320   36.3740 C.3    67  LYS67       0.0271
     84  CG         6.5070    8.4060   37.8170 C.3    67  LYS67       0.0035
     85  CD         7.1420    9.7940   38.0640 C.3    67  LYS67       0.0206
     86  CE         8.6820    9.7880   37.8880 C.3    67  LYS67       0.1093
     87  NZ         9.2570   11.1570   38.0940 N.3    67  LYS67      -0.1314
     88  N          9.2300    6.7820   32.7330 N.3    69  THR69      -0.1218
     89  CA         9.8490    5.4690   32.8390 C.3    69  THR69       0.1862
     90  C          9.1420    4.7020   33.9610 C.2    69  THR69       0.2287
     91  O          8.8300    5.2730   35.0220 O.2    69  THR69      -0.2866
     92  CB        11.3630    5.5300   33.1740 C.3    69  THR69       0.1770
     93  OG1       11.6030    6.4710   34.2370 O.3    69  THR69      -0.2211
     94  CG2       12.1720    5.8920   31.9060 C.3    69  THR69       0.0375
     95  N         14.1300    7.3170   43.9660 N.3    79  CYS79      -0.1221
     96  CA        15.1960    7.0460   43.0580 C.3    79  CYS79       0.1808
     97  C         15.1980    8.2550   42.1410 C.2    79  CYS79       0.2602
     98  O         14.1380    8.6930   41.6740 O.2    79  CYS79      -0.2717
     99  CB        14.9000    5.7350   42.3430 C.3    79  CYS79       0.0970
    100  SG        15.0910    4.2120   43.2770 S.3    79  CYS79      -0.0800
    101  N         16.3710    8.8450   41.9360 N.am   80  SER80      -0.1938
    102  CA        16.4510    9.9900   41.0560 C.3    80  SER80       0.2055
    103  C         17.8940   10.2490   40.6380 C.2    80  SER80       0.2643
    104  O         18.7110    9.3320   40.6300 O.2    80  SER80      -0.2714
    105  CB        15.8390   11.2240   41.7330 C.3    80  SER80       0.2130
    106  OG        15.6500   12.2440   40.7670 O.3    80  SER80      -0.2179
    107  N         18.2230   11.4940   40.3080 N.am   81  HIS81      -0.1973
    108  CA        19.5790   11.7550   39.8610 C.3    81  HIS81       0.1656
    109  C         20.1300   13.0620   40.3530 C.2    81  HIS81       0.2291
    110  O         19.3850   14.0200   40.5120 O.2    81  HIS81      -0.2864
    111  CB        19.6640   11.8510   38.3220 C.3    81  HIS81       0.0771
    112  CG        18.7760   10.8950   37.5840 C.ar   81  HIS81       0.0820
    113  ND1       17.5000   11.2290   37.1820 N.ar   81  HIS81      -0.2267
    114  CD2       18.9970    9.6390   37.1220 C.ar   81  HIS81       0.1154
    115  CE1       16.9790   10.2220   36.5000 C.ar   81  HIS81       0.1986
    116  NE2       17.8680    9.2480   36.4500 N.ar   81  HIS81      -0.2212
    117  N         15.1770   15.4560   46.4590 N.3   104  ARG104     -0.1245
    118  CA        14.1040   14.6350   45.8780 C.3   104  ARG104      0.1563
    119  C         13.2050   14.0010   46.9380 C.2   104  ARG104      0.2260
    120  O         12.0180   13.7570   46.6980 O.2   104  ARG104     -0.2867
    121  CB        14.6980   13.5430   44.9650 C.3   104  ARG104      0.0307
    122  CG        15.3660   14.1270   43.7080 C.3   104  ARG104      0.0489
    123  CD        14.3510   14.8970   42.8460 C.3   104  ARG104      0.2205
    124  NE        13.2810   14.0250   42.3560 N.pl3 104  ARG104     -0.0865
    125  CZ        12.1630   14.4650   41.7760 C.cat 104  ARG104      0.5346
    126  NH1       11.9640   15.7750   41.6090 N.pl3 104  ARG104      0.1354
    127  NH2       11.2400   13.5980   41.3660 N.pl3 104  ARG104      0.1354
    128  N          9.4380   14.5490   46.1070 N.3   108  GLU108     -0.1245
    129  CA         8.5550   13.4110   45.8240 C.3   108  GLU108      0.1567
    130  C          7.6460   12.9880   46.9620 C.2   108  GLU108      0.2260
    131  O          6.4530   12.7750   46.7590 O.2   108  GLU108     -0.2867
    132  CB         9.3650   12.1660   45.4110 C.3   108  GLU108      0.0388
    133  CG         9.8470   12.1330   43.9670 C.3   108  GLU108      0.1160
    134  CD        10.8030   10.9630   43.6950 C.2   108  GLU108      0.3649
    135  OE1       10.5320    9.8420   44.1730 O.co2 108  GLU108     -0.2457
    136  OE2       11.8270   11.1680   43.0000 O.co2 108  GLU108     -0.2457
    137  N         23.7370   -0.7560   36.2020 N.3   129  TYR129     -0.1241
    138  CA        22.7220   -1.5680   35.5310 C.3   129  TYR129      0.1605
    139  C         22.1190   -0.8510   34.3230 C.2   129  TYR129      0.2264
    140  O         22.2080    0.3710   34.2080 O.2   129  TYR129     -0.2867
    141  CB        21.5960   -1.9490   36.5110 C.3   129  TYR129      0.0534
    142  CG        20.5740   -0.8460   36.7320 C.ar  129  TYR129     -0.0201
    143  CD1       19.3850   -0.8210   35.9950 C.ar  129  TYR129     -0.0009
    144  CD2       20.8380    0.2120   37.5980 C.ar  129  TYR129     -0.0009
    145  CE1       18.4920    0.2380   36.1060 C.ar  129  TYR129      0.0417
    146  CE2       19.9380    1.3020   37.7250 C.ar  129  TYR129      0.0417
    147  CZ        18.7700    1.3020   36.9620 C.ar  129  TYR129      0.1957
    148  OH        17.9050    2.3760   36.9840 O.3   129  TYR129     -0.2866
    149  N         16.7840    2.9760   31.1000 N.3   139  GLU139     -0.1245
    150  CA        17.7290    3.4270   32.1140 C.3   139  GLU139      0.1567
    151  C         19.0970    2.8280   31.8780 C.2   139  GLU139      0.2260
    152  O         19.2160    1.7380   31.3300 O.2   139  GLU139     -0.2867
    153  CB        17.2650    2.9930   33.5210 C.3   139  GLU139      0.0388
    154  CG        16.2640    3.9440   34.1610 C.3   139  GLU139      0.1160
    155  CD        16.9220    5.2430   34.6080 C.2   139  GLU139      0.3649
    156  OE1       18.0880    5.4790   34.2020 O.co2 139  GLU139     -0.2457
    157  OE2       16.2710    6.0160   35.3510 O.co2 139  GLU139     -0.2457
    158  N         22.5360    3.4480   34.3970 N.3   141  GLU141     -0.1245
    159  CA        23.1110    4.2460   35.4630 C.3   141  GLU141      0.1567
    160  C         24.1110    3.5290   36.3310 C.2   141  GLU141      0.2260
    161  O         24.1240    2.3090   36.4020 O.2   141  GLU141     -0.2867
    162  CB        21.9920    4.6600   36.4690 C.3   141  GLU141      0.0388
    163  CG        20.6760    5.2350   35.9010 C.3   141  GLU141      0.1160
    164  CD        19.5530    5.4380   36.9750 C.2   141  GLU141      0.3649
    165  OE1       19.3750    4.5910   37.8800 O.co2 141  GLU141     -0.2457
    166  OE2       18.8290    6.4610   36.9040 O.co2 141  GLU141     -0.2457
    167  N         24.3020    3.6480   40.0300 N.3   143  ASP143     -0.1239
    168  CA        23.3970    4.0440   41.0940 C.3   143  ASP143      0.1674
    169  C         24.0180    3.9840   42.4850 C.2   143  ASP143      0.2266
    170  O         24.4670    2.9360   42.9100 O.2   143  ASP143     -0.2867
    171  CB        22.1830    3.0890   40.9910 C.3   143  ASP143      0.1410
    172  CG        20.8820    3.6710   41.5490 C.2   143  ASP143      0.3668
    173  OD1       20.8030    4.8720   41.8470 O.co2 143  ASP143     -0.2456
    174  OD2       19.9190    2.8940   41.6710 O.co2 143  ASP143     -0.2456
    175  N         15.6730   -1.5730   39.0930 N.3   189  TRP189     -0.1241
    176  CA        16.6720   -1.3820   40.1370 C.3   189  TRP189      0.1605
    177  C         16.2690   -2.0030   41.4820 C.2   189  TRP189      0.2264
    178  O         17.1230   -2.5500   42.1900 O.2   189  TRP189     -0.2867
    179  CB        17.0370    0.1010   40.3240 C.3   189  TRP189      0.0550
    180  CG        15.9010    1.0190   40.6780 C.ar  189  TRP189      0.0003
    181  CD1       15.4220    1.3020   41.9330 C.ar  189  TRP189      0.0946
    182  CD2       15.1040    1.7860   39.7580 C.ar  189  TRP189      0.0152
    183  NE1       14.3750    2.2020   41.8470 N.ar  189  TRP189     -0.2442
    184  CE2       14.1590    2.5150   40.5270 C.ar  189  TRP189      0.0810
    185  CE3       15.1000    1.9300   38.3580 C.ar  189  TRP189      0.0012
    186  CZ2       13.2170    3.3740   39.9440 C.ar  189  TRP189      0.0191
    187  CZ3       14.1650    2.7900   37.7710 C.ar  189  TRP189      0.0001
    188  CH2       13.2310    3.5030   38.5710 C.ar  189  TRP189      0.0015
@<TRIPOS>BOND
     1    38    39    2
     2    38    37    1
     3    36    37    1
     4    37    40    1
     5    40    41    1
     6    30    29    2
     7    29    28    1
     8    27    28    1
     9   149   150    1
    10   152   151    2
    11    28    31    1
    12    41    42   ar
    13    41    43   ar
    14   151   150    1
    15    94    92    1
    16    42    44   ar
    17   150   153    1
    18    43    45   ar
    19    31    32    1
    20    21    20    2
    21     4     3    2
    22    88    89    1
    23     3     2    1
    24    89    92    1
    25    89    90    1
    26    18    19    1
    27    32    33    1
    28    44    45   ar
    29    92    93    1
    30    12    13    2
    31    12    11    1
    32    20    19    1
    33    82    81    2
    34   153   154    1
    35    10    11    1
    36     5     2    1
    37     5     6    1
    38    81    80    1
    39    90    91    2
    40    19    22    1
    41     2     1    1
    42    33    34    1
    43   154   155    1
    44   156   155   ar
    45   140   139    2
    46    11    14    1
    47   139   138    1
    48   158   159    1
    49   155   157   ar
    50    34    35    1
    51    22    23    1
    52     6     7    1
    53    80    79    1
    54    80    83    1
    55    14    15    1
    56   159   160    1
    57   159   162    1
    58   138   137    1
    59   138   141    1
    60   163   162    1
    61   163   164    1
    62    23    24    1
    63   143   145   ar
    64   143   142   ar
    65   145   147   ar
    66     8     7    2
    67   160   161    2
    68     7     9   am
    69    83    84    1
    70   116   115   ar
    71   116   114   ar
    72   115   113   ar
    73   141   142    1
    74    15    17    1
    75    15    16    1
    76   142   144   ar
    77   166   164   ar
    78   147   148    1
    79   147   146   ar
    80   164   165   ar
    81    78    76    1
    82   114   112   ar
    83   113   112   ar
    84    24    25   ar
    85    24    26   ar
    86   112   111    1
    87   144   146   ar
    88   187   185   ar
    89   187   188   ar
    90    84    85    1
    91    86    85    1
    92    86    87    1
    93    75    76    2
    94    75    74    1
    95    76    77    1
    96   111   108    1
    97   185   182   ar
    98   188   186   ar
    99   175   176    1
   100    50    47    1
   101    46    47    1
   102    74    73    1
   103   182   184   ar
   104   182   180   ar
   105    72    73    1
   106    72    69    1
   107   108   107    1
   108   108   109    1
   109    47    48    1
   110    71    70    2
   111   186   184   ar
   112   167   168    1
   113   176   179    1
   114   176   177    1
   115    70    69    1
   116   107   103   am
   117   179   180    1
   118   109   110    2
   119   184   183   ar
   120   104   103    2
   121   103   102    1
   122   180   181   ar
   123   106   105    1
   124    69    68    1
   125   171   168    1
   126   171   172    1
   127   102   105    1
   128   102   101    1
   129   168   169    1
   130    48    49    2
   131    48    51   am
   132   127   125    1
   133   177   178    2
   134   172   174   ar
   135   172   173   ar
   136   126   125    1
   137    98    97    2
   138   125   124    2
   139   183   181   ar
   140   101    97   am
   141    51    52    1
   142    97    96    1
   143    99    96    1
   144    99   100    1
   145   124   123    1
   146   169   170    2
   147   123   122    1
   148   136   134   ar
   149    96    95    1
   150    54    53    2
   151    67    66    1
   152    52    53    1
   153    52    55    1
   154   134   133    1
   155   134   135   ar
   156   122   121    1
   157    53    62   am
   158    60    58   ar
   159    60    61   ar
   160    58    56   ar
   161   133   132    1
   162    55    56    1
   163    61    59   ar
   164    56    57   ar
   165    66    63    1
   166    62    63    1
   167   121   118    1
   168    63    64    1
   169    59    57   ar
   170   132   129    1
   171   129   128    1
   172   129   130    1
   173   118   117    1
   174   118   119    1
   175    64    65    2
   176   120   119    2
   177   131   130    2
