@<TRIPOS>MOLECULE
tmp/2icsA00.pdb
 123 116 0 0 0
SMALL
GASTEIGER

@<TRIPOS>ATOM
      1  N         37.4600   17.2110   13.6650 N.3    56  HIS56      -0.1241
      2  CA        38.6410   16.4090   13.9380 C.3    56  HIS56       0.1621
      3  C         38.1470   15.0050   14.2350 C.2    56  HIS56       0.2264
      4  O         37.7490   14.6820   15.3550 O.2    56  HIS56      -0.2867
      5  CB        39.4850   16.9480   15.0960 C.3    56  HIS56       0.0745
      6  CG        40.7890   16.2290   15.2530 C.ar   56  HIS56       0.0817
      7  ND1       41.9330   16.8010   15.7630 N.ar   56  HIS56      -0.2268
      8  CD2       41.1180   14.9400   14.9730 C.ar   56  HIS56       0.1154
      9  CE1       42.9010   15.8620   15.7780 C.ar   56  HIS56       0.1986
     10  NE2       42.4540   14.7150   15.3080 N.ar   56  HIS56      -0.2212
     11  N         38.4310   10.5330   12.7970 N.3    58  HIS58      -0.1241
     12  CA        39.1780    9.4810   12.1260 C.3    58  HIS58       0.1621
     13  C         38.1530    8.4130   11.7590 C.2    58  HIS58       0.2264
     14  O         37.7590    7.5860   12.5870 O.2    58  HIS58      -0.2867
     15  CB        40.2690    8.9430   13.0430 C.3    58  HIS58       0.0745
     16  CG        41.3780    9.9220   13.2670 C.ar   58  HIS58       0.0817
     17  ND1       42.2540   10.3220   12.2820 N.ar   58  HIS58      -0.2268
     18  CD2       41.6850   10.6690   14.3580 C.ar   58  HIS58       0.1154
     19  CE1       43.0410   11.2840   12.7910 C.ar   58  HIS58       0.1986
     20  NE2       42.7370   11.5300   14.0500 N.ar   58  HIS58      -0.2212
     21  N         43.6870    3.0770   14.0020 N.3    65  TYR65      -0.1241
     22  CA        43.0860    4.4030   14.0360 C.3    65  TYR65       0.1605
     23  C         41.9560    4.5040   12.9990 C.2    65  TYR65       0.2264
     24  O         42.1770    4.9720   11.8850 O.2    65  TYR65      -0.2867
     25  CB        44.1890    5.4210   13.7320 C.3    65  TYR65       0.0534
     26  CG        44.2410    6.6330   14.6410 C.ar   65  TYR65      -0.0201
     27  CD1       44.2520    6.4990   16.0330 C.ar   65  TYR65      -0.0009
     28  CD2       44.3100    7.9200   14.1070 C.ar   65  TYR65      -0.0009
     29  CE1       44.3270    7.6240   16.8640 C.ar   65  TYR65       0.0417
     30  CE2       44.3910    9.0460   14.9260 C.ar   65  TYR65       0.0417
     31  CZ        44.3940    8.8910   16.3000 C.ar   65  TYR65       0.1957
     32  OH        44.4370   10.0050   17.1030 O.3    65  TYR65      -0.2866
     33  N         53.0940    4.8870   13.0650 N.3   120  GLN120     -0.1245
     34  CA        52.8600    5.8710   14.1150 C.3   120  GLN120      0.1566
     35  C         53.7310    7.1000   13.8770 C.2   120  GLN120      0.2260
     36  O         53.4060    8.1980   14.3240 O.2   120  GLN120     -0.2867
     37  CB        53.1800    5.2690   15.4860 C.3   120  GLN120      0.0367
     38  CG        53.0130    6.2370   16.6590 C.3   120  GLN120      0.0905
     39  CD        51.5730    6.6820   16.8650 C.2   120  GLN120      0.2608
     40  OE1       50.6830    5.8580   17.0970 O.2   120  GLN120     -0.2717
     41  NE2       51.3380    7.9890   16.7870 N.am  120  GLN120     -0.0878
     42  N         50.9470   16.2830   12.0370 N.3   150  ARG150     -0.1245
     43  CA        50.9980   15.9040   13.4460 C.3   150  ARG150      0.1563
     44  C         52.3770   16.1760   14.0170 C.2   150  ARG150      0.2260
     45  O         53.2590   15.3220   13.9730 O.2   150  ARG150     -0.2867
     46  CB        50.6300   14.4290   13.6120 C.3   150  ARG150      0.0307
     47  CG        49.2030   14.1040   13.1870 C.3   150  ARG150      0.0489
     48  CD        48.7410   12.7880   13.8000 C.3   150  ARG150      0.2205
     49  NE        49.5790   11.6620   13.3960 N.pl3 150  ARG150     -0.0865
     50  CZ        49.7160   10.5480   14.1050 C.cat 150  ARG150      0.5346
     51  NH1       49.0700   10.4110   15.2570 N.pl3 150  ARG150      0.1354
     52  NH2       50.5030    9.5700   13.6690 N.pl3 150  ARG150      0.1354
     53  N         54.4600   16.1520   16.8170 N.3   151  SER151     -0.1217
     54  CA        54.7950   15.6950   18.1610 C.3   151  SER151      0.1889
     55  C         55.8350   14.5740   18.1310 C.2   151  SER151      0.2288
     56  O         55.9800   13.8600   17.1350 O.2   151  SER151     -0.2866
     57  CB        53.5460   15.2310   18.9170 C.3   151  SER151      0.2089
     58  OG        53.0890   13.9760   18.4480 O.3   151  SER151     -0.2183
     59  N         56.5130   11.3370   18.9690 N.3   153  THR153     -0.1203
     60  CA        56.3800   10.0210   18.3580 C.3   153  THR153      0.1994
     61  C         56.0790   10.0390   16.8630 C.2   153  THR153      0.2617
     62  O         56.0850    8.9960   16.2150 O.2   153  THR153     -0.2717
     63  CB        55.2860    9.1870   19.0730 C.3   153  THR153      0.1784
     64  OG1       53.9950    9.7480   18.8040 O.3   153  THR153     -0.2211
     65  CG2       55.5220    9.1800   20.5860 C.3   153  THR153      0.0376
     66  N         55.8330   11.2170   16.3050 N.am  154  VAL154     -0.1979
     67  CA        55.5210   11.3060   14.8860 C.3   154  VAL154      0.1595
     68  C         56.6930   11.7180   14.0070 C.2   154  VAL154      0.2287
     69  O         56.9130   11.1370   12.9430 O.2   154  VAL154     -0.2864
     70  CB        54.3670   12.3160   14.6270 C.3   154  VAL154      0.0276
     71  CG1       53.9760   12.2990   13.1570 C.3   154  VAL154      0.0022
     72  CG2       53.1680   11.9830   15.4990 C.3   154  VAL154      0.0022
     73  N         48.6060   19.2990   14.8060 N.3   180  HIS180     -0.1241
     74  CA        48.4650   18.5090   16.0120 C.3   180  HIS180      0.1621
     75  C         49.7140   18.7480   16.8530 C.2   180  HIS180      0.2264
     76  O         50.8260   18.8210   16.3250 O.2   180  HIS180     -0.2867
     77  CB        48.2800   17.0260   15.6110 C.3   180  HIS180      0.0745
     78  CG        49.0180   16.0300   16.4620 C.ar  180  HIS180      0.0817
     79  ND1       48.4180   14.8510   16.8490 N.ar  180  HIS180     -0.2268
     80  CD2       50.3110   16.0330   16.8810 C.ar  180  HIS180      0.1154
     81  CE1       49.3530   14.1680   17.4840 C.ar  180  HIS180      0.1986
     82  NE2       50.5150   14.8410   17.5280 N.ar  180  HIS180     -0.2212
     83  N         44.0580   19.9050   19.6720 N.3   202  HIS202     -0.1241
     84  CA        44.5670   19.3930   20.9490 C.3   202  HIS202      0.1621
     85  C         45.0090   20.5900   21.7950 C.2   202  HIS202      0.2264
     86  O         45.8710   20.4720   22.6690 O.2   202  HIS202     -0.2867
     87  CB        45.7780   18.4710   20.7540 C.3   202  HIS202      0.0745
     88  CG        45.5230   17.3060   19.8550 C.ar  202  HIS202      0.0817
     89  ND1       44.3350   16.6100   19.8080 N.ar  202  HIS202     -0.2268
     90  CD2       46.3570   16.6700   18.9950 C.ar  202  HIS202      0.1154
     91  CE1       44.4840   15.5990   18.9470 C.ar  202  HIS202      0.1986
     92  NE2       45.6950   15.5950   18.4280 N.ar  202  HIS202     -0.2212
     93  N         49.8440   17.9390   28.5320 N.3   207  LYS207     -0.1245
     94  CA        51.2520   17.5670   28.4940 C.3   207  LYS207      0.1561
     95  C         52.1340   18.7580   28.8830 C.2   207  LYS207      0.2260
     96  O         51.6840   19.9080   28.8690 O.2   207  LYS207     -0.2867
     97  CB        51.6070   17.0600   27.0890 C.3   207  LYS207      0.0271
     98  CG        50.7580   15.8660   26.6640 C.3   207  LYS207      0.0035
     99  CD        51.0090   15.4320   25.2190 C.3   207  LYS207      0.0206
    100  CE        50.0650   14.2890   24.8310 C.3   207  LYS207      0.1093
    101  NZ        50.1260   13.9050   23.3860 N.3   207  LYS207     -0.1314
    102  N         44.2460   11.2650   24.6380 N.3   240  ASP240     -0.1225
    103  CA        45.1740   11.9480   25.5350 C.3   240  ASP240      0.1805
    104  C         45.3620   13.4380   25.3050 C.2   240  ASP240      0.2598
    105  O         46.3500   14.0040   25.7620 O.2   240  ASP240     -0.2718
    106  CB        46.5460   11.2720   25.4670 C.3   240  ASP240      0.1424
    107  CG        46.5590    9.9140   26.1500 C.2   240  ASP240      0.3668
    108  OD1       46.2470    9.8470   27.3660 O.co2 240  ASP240     -0.2456
    109  OD2       46.8830    8.9170   25.4730 O.co2 240  ASP240     -0.2456
    110  N         44.4180   14.0960   24.6460 N.am  241  SER241     -0.1952
    111  CA        44.6160   15.5070   24.3580 C.3   241  SER241      0.1924
    112  C         43.7360   16.5710   25.0060 C.2   241  SER241      0.2314
    113  O         43.7980   17.7380   24.6070 O.2   241  SER241     -0.2863
    114  CB        44.6180   15.6890   22.8410 C.3   241  SER241      0.2116
    115  OG        45.5920   14.8350   22.2620 O.3   241  SER241     -0.2180
    116  N         38.3770   14.1800   18.0820 N.3   262  ASP262     -0.1239
    117  CA        39.5440   13.3550   17.7610 C.3   262  ASP262      0.1674
    118  C         39.1310   11.9340   18.1370 C.2   262  ASP262      0.2266
    119  O         39.8720   11.1800   18.7600 O.2   262  ASP262     -0.2867
    120  CB        40.7920   13.7420   18.5370 C.3   262  ASP262      0.1410
    121  CG        41.9680   12.8280   18.2110 C.2   262  ASP262      0.3668
    122  OD1       42.0030   12.2960   17.0840 O.co2 262  ASP262     -0.2456
    123  OD2       42.8600   12.6380   19.0620 O.co2 262  ASP262     -0.2456
@<TRIPOS>BOND
     1    13    12    1
     2    13    14    2
     3    24    23    2
     4    42    43    1
     5    12    11    1
     6    12    15    1
     7    17    19   ar
     8    17    16   ar
     9    19    20   ar
    10    69    68    2
    11    23    22    1
    12    15    16    1
    13    33    34    1
    14    71    70    1
    15    47    46    1
    16    47    48    1
    17    16    18   ar
    18    49    48    1
    19    49    50    2
    20    43    46    1
    21    43    44    1
    22     1     2    1
    23    52    50    1
    24    25    22    1
    25    25    26    1
    26    35    34    1
    27    35    36    2
    28     2     3    1
    29     2     5    1
    30    45    44    2
    31    21    22    1
    32    68    67    1
    33    20    18   ar
    34    50    51    1
    35    28    26   ar
    36    28    30   ar
    37    34    37    1
    38     3     4    2
    39    70    67    1
    40    70    72    1
    41    26    27   ar
    42    73    74    1
    43    67    66    1
    44    30    31   ar
    45     8     6   ar
    46     8    10   ar
    47     5     6    1
    48     6     7   ar
    49    10     9   ar
    50    37    38    1
    51    77    74    1
    52    77    78    1
    53     7     9   ar
    54    74    75    1
    55    27    29   ar
    56    62    61    2
    57    31    29   ar
    58    31    32    1
    59    66    61   am
    60    76    75    2
    61    78    79   ar
    62    78    80   ar
    63    38    39    1
    64    41    39   am
    65    53    54    1
    66    79    81   ar
    67    61    60    1
    68    39    40    2
    69    80    82   ar
    70   122   121   ar
    71    56    55    2
    72    81    82   ar
    73   117   116    1
    74   117   118    1
    75   117   120    1
    76    55    54    1
    77   118   119    2
    78    54    57    1
    79   121   120    1
    80   121   123   ar
    81    60    59    1
    82    60    63    1
    83    92    91   ar
    84    92    90   ar
    85    58    57    1
    86    64    63    1
    87    91    89   ar
    88    90    88   ar
    89    63    65    1
    90    83    84    1
    91    89    88   ar
    92    88    87    1
    93    87    84    1
    94    84    85    1
    95    85    86    2
    96   115   114    1
    97   114   111    1
    98   101   100    1
    99   111   110    1
   100   111   112    1
   101   113   112    2
   102   102   103    1
   103   110   104   am
   104   100    99    1
   105    99    98    1
   106   104   103    1
   107   104   105    2
   108   106   103    1
   109   106   107    1
   110   109   107   ar
   111   107   108   ar
   112    98    97    1
   113    97    94    1
   114    94    93    1
   115    94    95    1
   116    96    95    2
