@<TRIPOS>MOLECULE
tmp/2icxA00.pdb
 134 125 0 0 0
SMALL
GASTEIGER

@<TRIPOS>ATOM
      1  N         -8.4780   -6.0000  -26.6030 N.3    73  LEU73      -0.1231
      2  CA        -8.7750   -6.1170  -28.0060 C.3    73  LEU73       0.1693
      3  C         -7.6070   -5.5340  -28.7820 C.2    73  LEU73       0.2592
      4  O         -7.3150   -4.3510  -28.6260 O.2    73  LEU73      -0.2718
      5  CB       -10.0790   -5.3610  -28.3090 C.3    73  LEU73       0.0284
      6  CG       -11.3150   -5.7600  -27.4630 C.3    73  LEU73       0.0019
      7  CD1      -12.4470   -4.7410  -27.6360 C.3    73  LEU73       0.0001
      8  CD2      -11.8090   -7.1930  -27.8180 C.3    73  LEU73       0.0001
      9  N         -6.9570   -6.3740  -29.6030 N.am   74  ASN74      -0.1960
     10  CA        -5.6510   -6.0740  -30.2400 C.3    74  ASN74       0.1819
     11  C         -5.6690   -6.4340  -31.7230 C.2    74  ASN74       0.2622
     12  O         -4.6300   -6.7160  -32.3150 O.2    74  ASN74      -0.2715
     13  CB        -4.5260   -6.8590  -29.5140 C.3    74  ASN74       0.1195
     14  CG        -3.1260   -6.3770  -29.8790 C.2    74  ASN74       0.2630
     15  OD1       -2.8370   -5.1630  -29.8760 O.2    74  ASN74      -0.2716
     16  ND2       -2.2520   -7.3150  -30.1530 N.am   74  ASN74      -0.0877
     17  N         -6.8650   -6.4230  -32.3180 N.am   75  GLY75      -0.1940
     18  CA        -7.0290   -6.7900  -33.7390 C.3    75  GLY75       0.2014
     19  C         -6.7120   -5.6760  -34.7300 C.2    75  GLY75       0.2639
     20  O         -6.7200   -5.9300  -35.9580 O.2    75  GLY75      -0.2714
     21  N         -6.3700   -4.4780  -34.2260 N.am   76  GLY76      -0.1939
     22  CA        -6.1490   -3.2820  -35.0680 C.3    76  GLY76       0.2014
     23  C         -4.7320   -2.7590  -35.2510 C.2    76  GLY76       0.2638
     24  O         -3.8570   -2.9740  -34.4070 O.2    76  GLY76      -0.2714
     25  N         -4.5130   -2.0360  -36.3600 N.am   77  LEU77      -0.1977
     26  CA        -3.1790   -1.5840  -36.7750 C.3    77  LEU77       0.1596
     27  C         -2.9120   -0.1090  -36.4420 C.2    77  LEU77       0.2287
     28  O         -3.8500    0.6700  -36.2850 O.2    77  LEU77      -0.2864
     29  CB        -2.9790   -1.8040  -38.2790 C.3    77  LEU77       0.0297
     30  CG        -2.9900   -3.2420  -38.8050 C.3    77  LEU77       0.0022
     31  CD1       -2.9560   -3.2360  -40.3300 C.3    77  LEU77       0.0001
     32  CD2       -1.7970   -3.9920  -38.2480 C.3    77  LEU77       0.0001
     33  N         -4.0140    4.5160  -38.7390 N.3    80  THR80      -0.1218
     34  CA        -4.5980    5.8780  -38.5470 C.3    80  THR80       0.1862
     35  C         -3.4920    6.8590  -38.1140 C.2    80  THR80       0.2287
     36  O         -3.4610    8.0070  -38.5240 O.2    80  THR80      -0.2866
     37  CB        -5.8130    5.8950  -37.5070 C.3    80  THR80       0.1770
     38  OG1       -7.0370    5.5370  -38.1600 O.3    80  THR80      -0.2211
     39  CG2       -6.0530    7.2880  -36.9060 C.3    80  THR80       0.0375
     40  N         -1.6540   -1.2470  -32.9960 N.3    87  LYS87      -0.1245
     41  CA        -1.7400    0.0130  -32.2710 C.3    87  LYS87       0.1561
     42  C         -1.1470   -0.0490  -30.8700 C.2    87  LYS87       0.2260
     43  O         -0.5720    0.9150  -30.3740 O.2    87  LYS87      -0.2867
     44  CB        -3.1860    0.4230  -32.1330 C.3    87  LYS87       0.0271
     45  CG        -3.2840    1.8380  -31.6630 C.3    87  LYS87       0.0035
     46  CD        -4.4120    2.5150  -32.3590 C.3    87  LYS87       0.0206
     47  CE        -5.0130    3.5410  -31.4280 C.3    87  LYS87       0.1093
     48  NZ        -6.4450    3.7580  -31.8680 N.3    87  LYS87      -0.1314
     49  N         -6.4710  -10.3650  -27.7750 N.3   122  MET122     -0.1245
     50  CA        -7.2040  -10.9110  -28.9120 C.3   122  MET122      0.1570
     51  C         -6.6160  -10.2640  -30.1860 C.2   122  MET122      0.2261
     52  O         -6.7970   -9.0630  -30.4160 O.2   122  MET122     -0.2867
     53  CB        -8.6920  -10.6370  -28.8190 C.3   122  MET122      0.0387
     54  CG        -9.3490  -11.1450  -30.1000 C.3   122  MET122      0.0595
     55  SD       -11.1220  -11.0840  -30.1170 S.3   122  MET122     -0.1393
     56  CE       -11.3800   -9.4320  -30.6540 C.3   122  MET122      0.0692
     57  N         -8.5330  -13.9850  -33.5220 N.3   150  GLN150     -0.1245
     58  CA        -9.9660  -14.0260  -33.7750 C.3   150  GLN150      0.1566
     59  C        -10.2720  -14.6040  -35.1690 C.2   150  GLN150      0.2260
     60  O         -9.3480  -15.0250  -35.9010 O.2   150  GLN150     -0.2867
     61  CB       -10.5850  -12.6280  -33.6110 C.3   150  GLN150      0.0367
     62  CG       -10.1250  -11.6460  -34.6530 C.3   150  GLN150      0.0905
     63  CD       -10.8130  -10.2960  -34.5310 C.2   150  GLN150      0.2608
     64  OE1      -10.1660   -9.2840  -34.3150 O.2   150  GLN150     -0.2717
     65  NE2      -12.1320  -10.2770  -34.7300 N.am  150  GLN150     -0.0878
     66  N        -11.2570   -9.3050  -40.1210 N.3   177  PRO177     -0.2116
     67  CA       -11.7440   -9.7820  -38.8120 C.3   177  PRO177      0.1372
     68  C        -13.1150   -9.1830  -38.4550 C.2   177  PRO177      0.2244
     69  O        -13.3010   -7.9360  -38.5350 O.2   177  PRO177     -0.2868
     70  CB       -10.6470   -9.3190  -37.8750 C.3   177  PRO177      0.0268
     71  CG       -10.1860   -7.9910  -38.5180 C.3   177  PRO177      0.0207
     72  CD       -10.3320   -8.1570  -39.9910 C.3   177  PRO177      0.0892
     73  N        -15.0680   -7.8090  -36.3910 N.3   179  GLY179     -0.1210
     74  CA       -15.3710   -6.8360  -35.3090 C.3   179  GLY179      0.1956
     75  C        -15.1060   -7.4220  -33.9560 C.2   179  GLY179      0.2611
     76  O        -14.8070   -8.6320  -33.8210 O.2   179  GLY179     -0.2717
     77  N        -15.2360   -6.5930  -32.9250 N.am  180  HIS180     -0.1975
     78  CA       -14.9720   -7.0820  -31.5740 C.3   180  HIS180      0.1656
     79  C        -16.0730   -7.9490  -30.9610 C.2   180  HIS180      0.2291
     80  O        -15.8520   -8.5970  -29.9370 O.2   180  HIS180     -0.2864
     81  CB       -14.4980   -5.9560  -30.6060 C.3   180  HIS180      0.0771
     82  CG       -15.2530   -4.6820  -30.7470 C.ar  180  HIS180      0.0820
     83  ND1      -16.6120   -4.5880  -30.5140 N.ar  180  HIS180     -0.2267
     84  CD2      -14.8510   -3.4530  -31.1280 C.ar  180  HIS180      0.1154
     85  CE1      -17.0040   -3.3410  -30.7040 C.ar  180  HIS180      0.1986
     86  NE2      -15.9610   -2.6390  -31.1110 N.ar  180  HIS180     -0.2212
     87  N        -10.5860   -1.9830  -24.9850 N.3   208  ASN208     -0.1225
     88  CA        -9.8370   -1.5820  -26.1410 C.3   208  ASN208      0.1785
     89  C         -8.3980   -1.4200  -25.6480 C.2   208  ASN208      0.2598
     90  O         -8.1400   -0.9350  -24.5470 O.2   208  ASN208     -0.2718
     91  CB       -10.3050   -0.1830  -26.6340 C.3   208  ASN208      0.1169
     92  CG       -11.7460   -0.1570  -27.1660 C.2   208  ASN208      0.2627
     93  OD1      -12.3250   -1.1780  -27.5780 O.2   208  ASN208     -0.2716
     94  ND2      -12.3210    1.0480  -27.1910 N.am  208  ASN208     -0.0877
     95  N         -7.4760   -1.8930  -26.4380 N.am  209  SER209     -0.1938
     96  CA        -6.0470   -1.8010  -26.1080 C.3   209  SER209      0.2055
     97  C         -5.5900   -0.3380  -25.9020 C.2   209  SER209      0.2643
     98  O         -4.6170   -0.0790  -25.2080 O.2   209  SER209     -0.2714
     99  CB        -5.2270   -2.4950  -27.1900 C.3   209  SER209      0.2130
    100  OG        -5.1480   -1.6900  -28.3700 O.3   209  SER209     -0.2179
    101  N         -6.2830    0.6190  -26.5230 N.am  210  ASP210     -0.1971
    102  CA        -5.8320    1.9960  -26.4810 C.3   210  ASP210      0.1709
    103  C         -6.5840    2.8440  -25.4690 C.2   210  ASP210      0.2293
    104  O         -6.3920    4.0500  -25.4220 O.2   210  ASP210     -0.2864
    105  CB        -5.8560    2.6350  -27.8840 C.3   210  ASP210      0.1436
    106  CG        -7.0700    2.2000  -28.7190 C.2   210  ASP210      0.3671
    107  OD1       -8.1700    2.0700  -28.1870 O.co2 210  ASP210     -0.2456
    108  OD2       -6.9080    1.9390  -29.9330 O.co2 210  ASP210     -0.2456
    109  N        -16.7240    0.5320  -24.1040 N.3   281  ASN281     -0.1240
    110  CA       -16.1570   -0.7590  -24.5030 C.3   281  ASN281      0.1653
    111  C        -15.3220   -1.4280  -23.4100 C.2   281  ASN281      0.2266
    112  O        -14.5600   -2.3430  -23.7170 O.2   281  ASN281     -0.2867
    113  CB       -15.3550   -0.7000  -25.8330 C.3   281  ASN281      0.1155
    114  CG       -15.8790   -1.6860  -26.8440 C.2   281  ASN281      0.2627
    115  OD1      -17.0710   -2.0410  -26.7910 O.2   281  ASN281     -0.2716
    116  ND2      -15.0330   -2.0870  -27.8130 N.am  281  ASN281     -0.0877
    117  N        -19.9040   -7.6040  -39.5360 N.3   319  GLU319     -0.1245
    118  CA       -19.2860   -7.7010  -38.2260 C.3   319  GLU319      0.1567
    119  C        -20.3710   -7.4920  -37.1530 C.2   319  GLU319      0.2260
    120  O        -21.5630   -7.2070  -37.4690 O.2   319  GLU319     -0.2867
    121  CB       -18.1340   -6.6920  -38.0880 C.3   319  GLU319      0.0388
    122  CG       -18.5660   -5.2550  -38.2370 C.3   319  GLU319      0.1160
    123  CD       -17.4570   -4.2380  -37.9820 C.2   319  GLU319      0.3649
    124  OE1      -16.2750   -4.6020  -37.7720 O.co2 319  GLU319     -0.2457
    125  OE2      -17.8010   -3.0430  -38.0270 O.co2 319  GLU319     -0.2457
    126  N         -6.7850    7.7150  -30.0110 N.3   346  LYS346     -0.1245
    127  CA        -7.1630    7.4390  -31.4030 C.3   346  LYS346      0.1561
    128  C         -6.3630    8.2340  -32.4200 C.2   346  LYS346      0.2260
    129  O         -6.2300    7.8170  -33.5740 O.2   346  LYS346     -0.2867
    130  CB        -8.6710    7.6640  -31.5980 C.3   346  LYS346      0.0271
    131  CG        -9.5710    6.8840  -30.6340 C.3   346  LYS346      0.0035
    132  CD        -9.4240    5.3520  -30.8120 C.3   346  LYS346      0.0206
    133  CE       -10.2100    4.5550  -29.7470 C.3   346  LYS346      0.1093
    134  NZ       -10.3170    3.0190  -29.9520 N.3   346  LYS346     -0.1314
@<TRIPOS>BOND
     1    31    30    1
     2    66    72    1
     3    66    67    1
     4    72    71    1
     5   117   118    1
     6    67    68    1
     7    67    70    1
     8    30    29    1
     9    30    32    1
    10    33    34    1
    11    34    35    1
    12    34    37    1
    13    69    68    2
    14    36    35    2
    15    71    70    1
    16    29    26    1
    17   122   121    1
    18   122   123    1
    19   118   121    1
    20   118   119    1
    21    38    37    1
    22   125   123   ar
    23   123   124   ar
    24    37    39    1
    25   120   119    2
    26    26    27    1
    27    26    25    1
    28    27    28    2
    29    73    74    1
    30    25    23   am
    31    20    19    2
    32    60    59    2
    33    74    75    1
    34    23    22    1
    35    23    24    2
    36    59    58    1
    37    22    21    1
    38    65    63   am
    39    19    21   am
    40    19    18    1
    41    62    63    1
    42    62    61    1
    43    63    64    2
    44    75    76    2
    45    75    77   am
    46    58    61    1
    47    58    57    1
    48    18    17    1
    49   129   128    2
    50    40    41    1
    51    77    78    1
    52   128   127    1
    53    46    45    1
    54    46    47    1
    55    17    11   am
    56    12    11    2
    57    41    44    1
    58    41    42    1
    59    44    45    1
    60    48    47    1
    61    11    10    1
    62   130   127    1
    63   130   131    1
    64    78    79    1
    65    78    81    1
    66   127   126    1
    67    84    86   ar
    68    84    82   ar
    69    86    85   ar
    70    79    80    2
    71    42    43    2
    72   132   131    1
    73   132   133    1
    74    82    81    1
    75    82    83   ar
    76    85    83   ar
    77    56    55    1
    78    52    51    2
    79    10     9    1
    80    10    13    1
    81    51    50    1
    82    16    14   am
    83    55    54    1
    84    54    53    1
    85   134   133    1
    86   108   106   ar
    87    14    15    2
    88    14    13    1
    89     9     3   am
    90    50    53    1
    91    50    49    1
    92     3     4    2
    93     3     2    1
    94   106   107   ar
    95   106   105    1
    96   100    99    1
    97     5     2    1
    98     5     6    1
    99     2     1    1
   100   105   102    1
   101     8     6    1
   102   116   114   am
   103     7     6    1
   104    93    92    2
   105    94    92   am
   106    99    96    1
   107    92    91    1
   108   114   115    2
   109   114   113    1
   110    91    88    1
   111   101   102    1
   112   101    97   am
   113   102   103    1
   114    95    96    1
   115    95    89   am
   116    88    89    1
   117    88    87    1
   118    96    97    1
   119    97    98    2
   120   113   110    1
   121    89    90    2
   122   103   104    2
   123   110   109    1
   124   110   111    1
   125   112   111    2
