@<TRIPOS>MOLECULE
tmp/2icyB00.pdb
 197 185 0 0 0
SMALL
GASTEIGER

@<TRIPOS>ATOM
      1  N         58.4320   23.3740   15.8110 N.3    79  LEU79      -0.1231
      2  CA        58.6880   23.5830   17.2570 C.3    79  LEU79       0.1693
      3  C         60.0710   22.9950   17.5790 C.2    79  LEU79       0.2592
      4  O         60.2750   21.7980   17.6560 O.2    79  LEU79      -0.2718
      5  CB        57.6230   22.8610   18.1150 C.3    79  LEU79       0.0284
      6  CG        56.1460   23.3090   17.9120 C.3    79  LEU79       0.0019
      7  CD1       55.2730   22.3000   18.6500 C.3    79  LEU79       0.0001
      8  CD2       55.9090   24.8130   18.4070 C.3    79  LEU79       0.0001
      9  N         60.9990   23.9040   17.7990 N.am   80  ASN80      -0.1960
     10  CA        62.4110   23.4930   17.9130 C.3    80  ASN80       0.1819
     11  C         63.0310   24.1550   19.1010 C.2    80  ASN80       0.2622
     12  O         64.2310   24.3560   19.0580 O.2    80  ASN80      -0.2715
     13  CB        63.1330   23.9900   16.6370 C.3    80  ASN80       0.1195
     14  CG        64.4640   23.2910   16.3670 C.2    80  ASN80       0.2630
     15  OD1       64.5620   22.0820   16.4870 O.2    80  ASN80      -0.2716
     16  ND2       65.4470   24.0450   15.9090 N.am   80  ASN80      -0.0877
     17  N         62.2240   24.4360   20.1290 N.am   81  GLY81      -0.1940
     18  CA        62.7330   25.1660   21.3060 C.3    81  GLY81       0.2014
     19  C         63.1250   24.2940   22.4690 C.2    81  GLY81       0.2639
     20  O         63.7220   24.7510   23.4590 O.2    81  GLY81      -0.2714
     21  N         62.7840   23.0250   22.3630 N.am   82  GLY82      -0.1954
     22  CA        63.1130   22.0890   23.4220 C.3    82  GLY82       0.1869
     23  C         64.5200   21.5450   23.2730 C.2    82  GLY82       0.2309
     24  O         65.2130   21.7480   22.2510 O.2    82  GLY82      -0.2863
     25  N         66.9180   18.2130   19.2940 N.3    93  LYS93      -0.1245
     26  CA        66.9300   16.8520   18.7740 C.3    93  LYS93       0.1561
     27  C         67.0620   16.8550   17.2550 C.2    93  LYS93       0.2260
     28  O         67.5120   15.8680   16.6520 O.2    93  LYS93      -0.2867
     29  CB        65.5990   16.1450   19.0450 C.3    93  LYS93       0.0271
     30  CG        65.3690   15.8050   20.4910 C.3    93  LYS93       0.0035
     31  CD        64.1380   14.9320   20.5680 C.3    93  LYS93       0.0206
     32  CE        63.7670   14.7620   22.0090 C.3    93  LYS93       0.1093
     33  NZ        62.5560   13.9330   22.1270 N.3    93  LYS93      -0.1314
     34  N         60.8760   27.5680   15.0740 N.3   128  MET128     -0.1245
     35  CA        60.7770   28.2720   16.3480 C.3   128  MET128      0.1570
     36  C         61.8690   27.6350   17.2210 C.2   128  MET128      0.2261
     37  O         61.7650   26.4890   17.6670 O.2   128  MET128     -0.2867
     38  CB        59.3770   28.0860   16.9910 C.3   128  MET128      0.0387
     39  CG        59.3180   28.8590   18.3370 C.3   128  MET128      0.0595
     40  SD        57.7150   28.8740   19.1660 S.3   128  MET128     -0.1393
     41  CE        57.7340   27.3580   20.3530 C.3   128  MET128      0.0692
     42  N         61.6920   31.9660   20.7420 N.3   156  GLN156     -0.1245
     43  CA        60.4720   32.1350   21.5170 C.3   156  GLN156      0.1566
     44  C         60.8060   32.8670   22.8400 C.2   156  GLN156      0.2260
     45  O         61.9560   33.2740   23.0870 O.2   156  GLN156     -0.2867
     46  CB        59.8100   30.7590   21.7720 C.3   156  GLN156      0.0367
     47  CG        60.6970   29.7700   22.5680 C.3   156  GLN156      0.0905
     48  CD        59.9970   28.4560   22.8980 C.2   156  GLN156      0.2608
     49  OE1       60.4700   27.3720   22.5350 O.2   156  GLN156     -0.2717
     50  NE2       58.8710   28.5400   23.6100 N.am  156  GLN156     -0.0878
     51  N         62.4850   28.3030   28.0160 N.3   183  PRO183     -0.2116
     52  CA        61.4740   28.7510   27.0270 C.3   183  PRO183      0.1372
     53  C         60.1790   28.1210   27.5840 C.2   183  PRO183      0.2244
     54  O         60.1800   26.9280   27.9150 O.2   183  PRO183     -0.2868
     55  CB        61.9390   28.1180   25.7310 C.3   183  PRO183      0.0268
     56  CG        62.6280   26.7940   26.1870 C.3   183  PRO183      0.0207
     57  CD        63.3140   27.1940   27.5360 C.3   183  PRO183      0.0892
     58  N         57.4790   26.3360   26.9610 N.3   185  GLY185     -0.1210
     59  CA        56.7460   25.2750   26.2630 C.3   185  GLY185      0.1956
     60  C         56.3150   25.6420   24.8590 C.2   185  GLY185      0.2611
     61  O         56.4580   26.7690   24.4390 O.2   185  GLY185     -0.2717
     62  N         55.7260   24.6950   24.1310 N.am  186  HIS186     -0.1975
     63  CA        55.2910   25.0520   22.7720 C.3   186  HIS186      0.1656
     64  C         53.9750   25.8480   22.7460 C.2   186  HIS186      0.2291
     65  O         53.6130   26.3970   21.7170 O.2   186  HIS186     -0.2864
     66  CB        55.1970   23.7890   21.8800 C.3   186  HIS186      0.0771
     67  CG        54.6080   22.6020   22.5560 C.ar  186  HIS186      0.0820
     68  ND1       53.2530   22.4730   22.8250 N.ar  186  HIS186     -0.2267
     69  CD2       55.1960   21.4780   23.0250 C.ar  186  HIS186      0.1154
     70  CE1       53.0390   21.3220   23.4320 C.ar  186  HIS186      0.1986
     71  NE2       54.2000   20.6970   23.5660 N.ar  186  HIS186     -0.2212
     72  N         56.5000   18.9970   15.6690 N.3   214  ASN214     -0.1225
     73  CA        57.8520   18.9060   16.2840 C.3   214  ASN214      0.1785
     74  C         58.9800   18.9250   15.2070 C.2   214  ASN214      0.2598
     75  O         58.8370   18.3650   14.1480 O.2   214  ASN214     -0.2718
     76  CB        58.0350   17.5480   17.0200 C.3   214  ASN214      0.1169
     77  CG        57.2860   17.4840   18.3260 C.2   214  ASN214      0.2627
     78  OD1       56.3460   18.2620   18.5540 O.2   214  ASN214     -0.2716
     79  ND2       57.6710   16.5220   19.1920 N.am  214  ASN214     -0.0877
     80  N         60.1300   19.5430   15.5040 N.am  215  SER215     -0.1938
     81  CA        61.2070   19.5830   14.5090 C.3   215  SER215      0.2055
     82  C         61.9290   18.2410   14.3380 C.2   215  SER215      0.2643
     83  O         62.7340   18.1060   13.4270 O.2   215  SER215     -0.2714
     84  CB        62.2450   20.7040   14.8030 C.3   215  SER215      0.2130
     85  OG        62.9370   20.4490   16.0640 O.3   215  SER215     -0.2179
     86  N         61.5700   17.2450   15.1410 N.am  216  ASP216     -0.1971
     87  CA        62.2200   15.9370   15.0120 C.3   216  ASP216      0.1709
     88  C         61.2190   14.8690   14.5060 C.2   216  ASP216      0.2293
     89  O         61.5340   13.6900   14.5040 O.2   216  ASP216     -0.2864
     90  CB        62.8020   15.5130   16.3910 C.3   216  ASP216      0.1436
     91  CG        61.7830   15.5970   17.4790 C.2   216  ASP216      0.3671
     92  OD1       61.0890   14.5670   17.6450 O.co2 216  ASP216     -0.2456
     93  OD2       61.6400   16.6700   18.1650 O.co2 216  ASP216     -0.2456
     94  N         48.5010    9.0560   26.5830 N.3   251  GLY251     -0.1210
     95  CA        48.5220   10.2200   25.7170 C.3   251  GLY251      0.1956
     96  C         47.2820   11.0730   25.8540 C.2   251  GLY251      0.2612
     97  O         46.2260   10.5460   26.2480 O.2   251  GLY251     -0.2717
     98  N         47.4140   12.3670   25.5280 N.am  252  GLY252     -0.1956
     99  CA        46.2720   13.2930   25.5570 C.3   252  GLY252      0.1869
    100  C         45.2530   12.9290   24.4630 C.2   252  GLY252      0.2309
    101  O         45.6170   12.5410   23.3670 O.2   252  GLY252     -0.2863
    102  N         41.7140   19.7210   24.6900 N.3   263  LEU263     -0.1245
    103  CA        42.8060   18.8470   25.1070 C.3   263  LEU263      0.1561
    104  C         42.7710   18.5000   26.6020 C.2   263  LEU263      0.2260
    105  O         42.7530   19.4100   27.4410 O.2   263  LEU263     -0.2867
    106  CB        44.1170   19.5470   24.8080 C.3   263  LEU263      0.0270
    107  CG        45.2790   18.6000   25.0770 C.3   263  LEU263      0.0019
    108  CD1       45.3020   17.5320   23.9490 C.3   263  LEU263      0.0001
    109  CD2       46.5850   19.4170   25.1630 C.3   263  LEU263      0.0001
    110  N         44.7490   16.5140   29.6320 N.3   265  GLU265     -0.1245
    111  CA        46.0160   15.9020   30.0220 C.3   265  GLU265      0.1567
    112  C         45.8940   15.4170   31.4620 C.2   265  GLU265      0.2260
    113  O         45.2810   16.1040   32.2870 O.2   265  GLU265     -0.2867
    114  CB        47.1300   16.9120   29.8230 C.3   265  GLU265      0.0388
    115  CG        47.2430   17.2890   28.3470 C.3   265  GLU265      0.1160
    116  CD        48.1990   16.3860   27.5650 C.2   265  GLU265      0.3649
    117  OE1       48.2520   15.1640   27.8980 O.co2 265  GLU265     -0.2457
    118  OE2       48.8790   16.9010   26.6080 O.co2 265  GLU265     -0.2457
    119  N         44.8190   10.0610   20.3340 N.3   286  PHE286     -0.1227
    120  CA        45.8410   10.8410   20.9140 C.3   286  PHE286      0.1736
    121  C         46.4530   11.7850   19.8820 C.2   286  PHE286      0.2595
    122  O         46.6090   11.4810   18.6910 O.2   286  PHE286     -0.2718
    123  CB        46.8870    9.9430   21.5460 C.3   286  PHE286      0.0547
    124  CG        47.8420    9.3670   20.6060 C.ar  286  PHE286     -0.0202
    125  CD1       49.0610   10.0160   20.3680 C.ar  286  PHE286     -0.0042
    126  CD2       47.5800    8.1400   19.9860 C.ar  286  PHE286     -0.0042
    127  CE1       50.0050    9.4590   19.5410 C.ar  286  PHE286     -0.0003
    128  CE2       48.5240    7.5470   19.1480 C.ar  286  PHE286     -0.0003
    129  CZ        49.7520    8.2050   18.9200 C.ar  286  PHE286     -0.0000
    130  N         46.7680   12.9480   20.4120 N.am  287  ASN287     -0.1960
    131  CA        47.3360   14.0800   19.7000 C.3   287  ASN287      0.1819
    132  C         48.7090   13.7250   19.1610 C.2   287  ASN287      0.2622
    133  O         49.5600   13.1930   19.8890 O.2   287  ASN287     -0.2715
    134  CB        47.4790   15.2150   20.6880 C.3   287  ASN287      0.1195
    135  CG        48.1020   16.4610   20.0910 C.2   287  ASN287      0.2630
    136  OD1       48.0330   16.7010   18.9130 O.2   287  ASN287     -0.2716
    137  ND2       48.6540   17.3020   20.9490 N.am  287  ASN287     -0.0877
    138  N         48.9210   14.0480   17.8950 N.am  288  THR288     -0.1937
    139  CA        50.2380   13.8220   17.2550 C.3   288  THR288      0.2028
    140  C         51.1110   15.0800   17.3750 C.2   288  THR288      0.2642
    141  O         52.3330   15.0340   17.1290 O.2   288  THR288     -0.2714
    142  CB        50.1440   13.6200   15.7430 C.3   288  THR288      0.1808
    143  OG1       49.5740   14.8220   15.1610 O.3   288  THR288     -0.2208
    144  CG2       49.2410   12.3530   15.3670 C.3   288  THR288      0.0379
    145  N         50.4760   16.1930   17.7350 N.am  289  ASN289     -0.1971
    146  CA        51.0500   17.5540   17.7780 C.3   289  ASN289      0.1688
    147  C         51.2830   18.1560   16.3790 C.2   289  ASN289      0.2292
    148  O         52.0230   19.1700   16.2800 O.2   289  ASN289     -0.2864
    149  CB        52.3140   17.7170   18.6360 C.3   289  ASN289      0.1181
    150  CG        52.1610   18.8620   19.6430 C.2   289  ASN289      0.2629
    151  OD1       51.0510   19.1040   20.1400 O.2   289  ASN289     -0.2716
    152  ND2       53.2660   19.5740   19.9470 N.am  289  ASN289     -0.0877
    153  N         54.5830   26.5370   32.1160 N.3   327  GLU327     -0.1196
    154  CA        54.4760   26.4800   30.6510 C.3   327  GLU327      0.1783
    155  C         53.0710   26.1230   30.2010 C.2   327  GLU327      0.2306
    156  O         52.1800   25.8330   31.0060 O.2   327  GLU327     -0.2863
    157  CB        55.4710   25.4320   30.0710 C.2   327  GLU327      0.0071
    158  CG        55.2340   23.9390   30.4640 C.2   327  GLU327      0.0834
    159  CD        56.1870   22.9270   29.8150 C.2   327  GLU327      0.3877
    160  OE1       57.1830   23.3060   29.1230 O.co2 327  GLU327     -0.2406
    161  OE2       55.9230   21.7060   30.0040 O.co2 327  GLU327     -0.2406
    162  N         50.7940   24.1820   26.6720 N.3   329  ALA329     -0.1245
    163  CA        50.8910   23.2940   25.5020 C.3   329  ALA329      0.1562
    164  C         50.1800   23.9520   24.3140 C.2   329  ALA329      0.2260
    165  O         49.0970   24.5190   24.4510 O.2   329  ALA329     -0.2867
    166  CB        50.2270   21.9380   25.8320 C.3   329  ALA329      0.0290
    167  N         48.6600   22.4660   21.8620 N.3   331  GLY331     -0.1225
    168  CA        47.4120   21.7520   21.5700 C.3   331  GLY331      0.1811
    169  C         46.3360   22.1790   22.5440 C.2   331  GLY331      0.2280
    170  O         45.1370   22.1030   22.2350 O.2   331  GLY331     -0.2866
    171  N         52.8770   10.0460   11.9440 N.3   350  PHE350     -0.1241
    172  CA        53.3870   10.1160   13.2980 C.3   350  PHE350      0.1605
    173  C         54.5950    9.1800   13.4510 C.2   350  PHE350      0.2264
    174  O         54.4500    7.9910   13.7330 O.2   350  PHE350     -0.2867
    175  CB        52.2930    9.7470   14.3150 C.3   350  PHE350      0.0534
    176  CG        52.7250    9.9440   15.7190 C.ar  350  PHE350     -0.0203
    177  CD1       52.9760   11.2280   16.2080 C.ar  350  PHE350     -0.0042
    178  CD2       52.9460    8.8460   16.5510 C.ar  350  PHE350     -0.0042
    179  CE1       53.4330   11.4170   17.4820 C.ar  350  PHE350     -0.0003
    180  CE2       53.4110    9.0240   17.8350 C.ar  350  PHE350     -0.0003
    181  CZ        53.6570   10.3140   18.3070 C.ar  350  PHE350     -0.0000
    182  N         57.9570   10.2410   15.3170 N.3   352  PRO352     -0.2168
    183  CA        58.6330   11.0580   16.3550 C.3   352  PRO352      0.1057
    184  C         59.9760   10.5110   16.8980 C.3   352  PRO352      0.1993
    185  O         60.2330    9.3630   16.5440 O.3   352  PRO352     -0.2189
    186  CB        57.6320   11.0080   17.4790 C.3   352  PRO352      0.0215
    187  CG        57.1990    9.5530   17.4380 C.3   352  PRO352      0.0203
    188  CD        57.0960    9.2230   15.9440 C.3   352  PRO352      0.0888
    189  N         61.3100   10.2470   20.7260 N.3   354  LYS354     -0.1245
    190  CA        61.2030   10.4130   22.1720 C.3   354  LYS354      0.1561
    191  C         62.4200    9.8460   22.8850 C.2   354  LYS354      0.2260
    192  O         62.8010   10.3230   23.9470 O.2   354  LYS354     -0.2867
    193  CB        59.9890    9.6730   22.7290 C.3   354  LYS354      0.0271
    194  CG        58.6360   10.2390   22.2800 C.3   354  LYS354      0.0035
    195  CD        58.4640   11.7220   22.6820 C.3   354  LYS354      0.0206
    196  CE        59.0080   12.6680   21.6090 C.3   354  LYS354      0.1093
    197  NZ        58.3380   13.9410   21.8520 N.3   354  LYS354     -0.1314
@<TRIPOS>BOND
     1   171   172    1
     2   172   173    1
     3   172   175    1
     4    83    82    2
     5   173   174    2
     6    75    74    2
     7   175   176    1
     8    82    81    1
     9    82    86   am
    10    89    88    2
    11    88    87    1
    12    81    84    1
    13    81    80    1
    14    84    85    1
    15    87    86    1
    16    87    90    1
    17    34    35    1
    18   143   142    1
    19    74    80   am
    20    74    73    1
    21   182   188    1
    22   182   183    1
    23   144   142    1
    24    72    73    1
    25   176   177   ar
    26   176   178   ar
    27   142   139    1
    28     1     2    1
    29    16    14   am
    30   188   187    1
    31   177   179   ar
    32   148   147    2
    33    73    76    1
    34    35    38    1
    35    35    36    1
    36   183   184    1
    37   183   186    1
    38    14    15    2
    39    14    13    1
    40   147   146    1
    41    90    91    1
    42   185   184    1
    43   178   180   ar
    44    13    10    1
    45    28    27    2
    46    38    39    1
    47    76    77    1
    48   141   140    2
    49    36    37    2
    50   139   140    1
    51   139   138    1
    52    27    26    1
    53     2     3    1
    54     2     5    1
    55   140   145   am
    56   187   186    1
    57    91    92   ar
    58    91    93   ar
    59   179   181   ar
    60     3     4    2
    61     3     9   am
    62   145   146    1
    63   146   149    1
    64     9    10    1
    65   180   181   ar
    66   138   132   am
    67     6     5    1
    68     6     8    1
    69     6     7    1
    70    10    11    1
    71    77    78    2
    72    77    79   am
    73    39    40    1
    74   149   150    1
    75   122   121    2
    76    26    29    1
    77    26    25    1
    78   136   135    2
    79   129   128   ar
    80   129   127   ar
    81    29    30    1
    82    12    11    2
    83    11    17   am
    84   128   126   ar
    85   132   131    1
    86   132   133    2
    87    40    41    1
    88   127   125   ar
    89   150   152   am
    90   150   151    2
    91   131   130    1
    92   131   134    1
    93   121   130   am
    94   121   120    1
    95   126   124   ar
    96   135   134    1
    97   135   137   am
    98    17    18    1
    99   119   120    1
   100   125   124   ar
   101    30    31    1
   102    31    32    1
   103   124   123    1
   104   189   190    1
   105    42    43    1
   106   120   123    1
   107    18    19    1
   108    43    46    1
   109    43    44    1
   110   168   167    1
   111   168   169    1
   112   196   197    1
   113   196   195    1
   114    65    64    2
   115    46    47    1
   116    66    67    1
   117    66    63    1
   118    32    33    1
   119   190   193    1
   120   190   191    1
   121   170   169    2
   122    24    23    2
   123   194   195    1
   124   194   193    1
   125    21    19   am
   126    21    22    1
   127    19    20    2
   128    49    48    2
   129    67    68   ar
   130    67    69   ar
   131    47    48    1
   132    64    63    1
   133    63    62    1
   134    68    70   ar
   135    44    45    2
   136   191   192    2
   137    48    50   am
   138    69    71   ar
   139    23    22    1
   140   101   100    2
   141    70    71   ar
   142   108   107    1
   143    62    60   am
   144   164   165    2
   145   164   163    1
   146    61    60    2
   147   100    99    1
   148   102   103    1
   149   106   107    1
   150   106   103    1
   151    60    59    1
   152   107   109    1
   153   103   104    1
   154   163   166    1
   155   163   162    1
   156    98    99    1
   157    98    96   am
   158    95    96    1
   159    95    94    1
   160    55    56    1
   161    55    52    1
   162    96    97    2
   163    56    57    1
   164    59    58    1
   165   104   105    2
   166   118   116   ar
   167    52    53    1
   168    52    51    1
   169    57    51    1
   170   116   117   ar
   171   116   115    1
   172    53    54    2
   173   115   114    1
   174   160   159   ar
   175   110   111    1
   176   159   161   ar
   177   159   158    1
   178   114   111    1
   179   111   112    1
   180   157   158    2
   181   157   154    1
   182   155   154    1
   183   155   156    2
   184   154   153    1
   185   112   113    2
