@<TRIPOS>MOLECULE
tmp/2idbA00.pdb
 148 144 0 0 0
SMALL
GASTEIGER

@<TRIPOS>ATOM
      1  N         68.6670   61.3500   86.5880 N.3   138  THR138     -0.1203
      2  CA        67.9200   61.5030   85.3620 C.3   138  THR138      0.1994
      3  C         68.4760   62.5060   84.3670 C.2   138  THR138      0.2617
      4  O         68.3300   62.3180   83.1640 O.2   138  THR138     -0.2717
      5  CB        66.4680   61.8150   85.6890 C.3   138  THR138      0.1784
      6  OG1       66.4090   62.8270   86.7040 O.3   138  THR138     -0.2211
      7  CG2       65.7870   60.5660   86.1950 C.3   138  THR138      0.0376
      8  N         69.1070   63.5670   84.8470 N.am  139  TRP139     -0.1975
      9  CA        69.6950   64.5370   83.9370 C.3   139  TRP139      0.1640
     10  C         71.1860   64.2570   83.8120 C.2   139  TRP139      0.2290
     11  O         71.6460   63.1180   83.9410 O.2   139  TRP139     -0.2864
     12  CB        69.4730   65.9610   84.4490 C.3   139  TRP139      0.0576
     13  CG        68.2560   66.6210   83.8700 C.ar  139  TRP139      0.0006
     14  CD1       67.1720   67.0840   84.5540 C.ar  139  TRP139      0.0946
     15  CD2       68.0080   66.9060   82.4810 C.ar  139  TRP139      0.0152
     16  NE1       66.2630   67.6440   83.6790 N.ar  139  TRP139     -0.2442
     17  CE2       66.7500   67.5500   82.4030 C.ar  139  TRP139      0.0810
     18  CE3       68.7260   66.6820   81.2980 C.ar  139  TRP139      0.0012
     19  CZ2       66.1940   67.9770   81.1910 C.ar  139  TRP139      0.0191
     20  CZ3       68.1710   67.1070   80.0820 C.ar  139  TRP139      0.0001
     21  CH2       66.9140   67.7480   80.0440 C.ar  139  TRP139      0.0015
     22  N         72.0700   61.5660   77.0790 N.3   156  ILE156     -0.1245
     23  CA        71.1930   61.5840   78.2290 C.3   156  ILE156      0.1561
     24  C         70.7690   60.1460   78.4930 C.2   156  ILE156      0.2260
     25  O         69.8810   59.6350   77.8220 O.2   156  ILE156     -0.2867
     26  CB        69.9280   62.4080   77.9770 C.3   156  ILE156      0.0252
     27  CG1       70.2230   63.5960   77.0690 C.3   156  ILE156      0.0019
     28  CG2       69.4070   62.9270   79.2940 C.3   156  ILE156      0.0019
     29  CD1       71.1860   64.5630   77.6580 C.3   156  ILE156      0.0001
     30  N         69.5860   57.4620   81.6430 N.3   158  ARG158     -0.1245
     31  CA        69.2460   57.4410   83.0620 C.3   158  ARG158      0.1563
     32  C         70.2030   56.5120   83.7920 C.2   158  ARG158      0.2260
     33  O         70.6160   55.4840   83.2510 O.2   158  ARG158     -0.2867
     34  CB        67.8100   56.9900   83.2690 C.3   158  ARG158      0.0307
     35  CG        67.5590   55.5420   82.9850 C.3   158  ARG158      0.0489
     36  CD        66.0690   55.3000   82.8710 C.3   158  ARG158      0.2205
     37  NE        65.7560   53.8760   82.8940 N.pl3 158  ARG158     -0.0865
     38  CZ        64.5950   53.3650   82.5110 C.cat 158  ARG158      0.5346
     39  NH1       63.6360   54.1710   82.0710 N.pl3 158  ARG158      0.1354
     40  NH2       64.4000   52.0560   82.5730 N.pl3 158  ARG158      0.1354
     41  N         70.2690   67.6680   73.8140 N.3   209  VAL209     -0.1245
     42  CA        68.9180   67.2070   73.5240 C.3   209  VAL209      0.1561
     43  C         68.5840   67.2860   72.0460 C.2   209  VAL209      0.2260
     44  O         68.2140   66.2900   71.4250 O.2   209  VAL209     -0.2867
     45  CB        67.8800   68.0400   74.2760 C.3   209  VAL209      0.0252
     46  CG1       66.5060   67.4630   74.0630 C.3   209  VAL209      0.0019
     47  CG2       68.2290   68.0880   75.7450 C.3   209  VAL209      0.0019
     48  N         58.4020   57.6120   80.1390 N.3   268  HIS268     -0.1241
     49  CA        57.4250   58.4600   79.4320 C.3   268  HIS268      0.1621
     50  C         56.1100   57.8300   79.0460 C.2   268  HIS268      0.2264
     51  O         55.0900   58.4950   79.0220 O.2   268  HIS268     -0.2867
     52  CB        58.0380   59.0830   78.1710 C.3   268  HIS268      0.0745
     53  CG        58.3050   58.0980   77.0820 C.ar  268  HIS268      0.0817
     54  ND1       59.2990   57.1500   77.1730 N.ar  268  HIS268     -0.2268
     55  CD2       57.6910   57.8900   75.8920 C.ar  268  HIS268      0.1154
     56  CE1       59.2880   56.4000   76.0850 C.ar  268  HIS268      0.1986
     57  NE2       58.3230   56.8280   75.2910 N.ar  268  HIS268     -0.2212
     58  N         65.2220   65.3870   87.2610 N.3   297  THR297     -0.1203
     59  CA        63.8800   65.3750   86.6920 C.3   297  THR297      0.1994
     60  C         63.2240   64.0110   86.8550 C.2   297  THR297      0.2618
     61  O         63.6060   63.2340   87.7260 O.2   297  THR297     -0.2717
     62  CB        63.8900   65.7340   85.1970 C.3   297  THR297      0.1784
     63  OG1       62.5410   65.8780   84.7470 O.3   297  THR297     -0.2211
     64  CG2       64.5570   64.6430   84.3860 C.3   297  THR297      0.0376
     65  N         62.2370   63.7210   86.0180 N.am  298  TYR298     -0.1961
     66  CA        61.5530   62.4430   86.0950 C.3   298  TYR298      0.1771
     67  C         60.7340   62.1870   84.8250 C.2   298  TYR298      0.2620
     68  O         60.5130   63.0950   84.0130 O.2   298  TYR298     -0.2715
     69  CB        60.6390   62.4240   87.3340 C.3   298  TYR298      0.0574
     70  CG        59.4130   63.3200   87.2190 C.ar  298  TYR298     -0.0198
     71  CD1       58.2600   62.8810   86.5540 C.ar  298  TYR298     -0.0009
     72  CD2       59.4290   64.6360   87.7030 C.ar  298  TYR298     -0.0009
     73  CE1       57.1700   63.7300   86.3660 C.ar  298  TYR298      0.0417
     74  CE2       58.3350   65.4890   87.5140 C.ar  298  TYR298      0.0417
     75  CZ        57.2200   65.0290   86.8420 C.ar  298  TYR298      0.1957
     76  OH        56.1710   65.8760   86.5880 O.3   298  TYR298     -0.2866
     77  N         60.3050   60.9390   84.6530 N.am  299  THR299     -0.1951
     78  CA        59.4670   60.5590   83.5210 C.3   299  THR299      0.1897
     79  C         58.2910   59.7090   83.9930 C.2   299  THR299      0.2313
     80  O         58.4300   58.8500   84.8690 O.2   299  THR299     -0.2863
     81  CB        60.2390   59.7630   82.4450 C.3   299  THR299      0.1794
     82  OG1       60.9740   58.6950   83.0600 O.3   299  THR299     -0.2208
     83  CG2       61.1690   60.6770   81.6730 C.3   299  THR299      0.0378
     84  N         58.1380   66.1980   82.0830 N.3   305  GLU305     -0.1231
     85  CA        59.1850   67.1970   81.9710 C.3   305  GLU305      0.1684
     86  C         59.7800   67.0490   80.5650 C.2   305  GLU305      0.2434
     87  O         59.9160   68.0250   79.8430 O.2   305  GLU305     -0.2733
     88  CB        60.2510   66.9460   83.0390 C.3   305  GLU305      0.0402
     89  CG        60.8460   68.1900   83.7030 C.3   305  GLU305      0.1161
     90  CD        62.0180   68.7750   82.9480 C.2   305  GLU305      0.3649
     91  OE1       61.7910   69.4420   81.9270 O.co2 305  GLU305     -0.2457
     92  OE2       63.1640   68.5620   83.3800 O.co2 305  GLU305     -0.2457
     93  N         60.1240   65.8170   80.1490 N.am  306  PRO306     -0.2718
     94  CA        60.6940   65.6280   78.8070 C.3   306  PRO306      0.1535
     95  C         59.6690   65.8040   77.6880 C.2   306  PRO306      0.2598
     96  O         59.9990   66.2020   76.5750 O.2   306  PRO306     -0.2715
     97  CB        61.2200   64.1970   78.8610 C.3   306  PRO306      0.0310
     98  CG        60.2200   63.5320   79.7350 C.3   306  PRO306      0.0237
     99  CD        60.0690   64.5290   80.8610 C.3   306  PRO306      0.0939
    100  N         58.4230   65.4800   78.0000 N.am  307  ALA307     -0.1978
    101  CA        57.3450   65.5980   77.0480 C.3   307  ALA307      0.1597
    102  C         57.2600   67.0240   76.5450 C.2   307  ALA307      0.2287
    103  O         57.1260   67.2530   75.3450 O.2   307  ALA307     -0.2864
    104  CB        56.0410   65.2050   77.6990 C.3   307  ALA307      0.0319
    105  N         59.6410   69.2440   76.7320 N.3   309  LEU309     -0.1231
    106  CA        60.8710   69.5490   76.0370 C.3   309  LEU309      0.1693
    107  C         60.7020   69.1300   74.5820 C.2   309  LEU309      0.2592
    108  O         61.1350   69.8300   73.6690 O.2   309  LEU309     -0.2718
    109  CB        62.0340   68.7870   76.6580 C.3   309  LEU309      0.0284
    110  CG        63.0040   69.6110   77.5110 C.3   309  LEU309      0.0019
    111  CD1       63.9390   68.6710   78.2570 C.3   309  LEU309      0.0001
    112  CD2       63.7860   70.5690   76.6330 C.3   309  LEU309      0.0001
    113  N         60.0550   67.9870   74.3700 N.am  310  GLY310     -0.1957
    114  CA        59.8470   67.4930   73.0190 C.3   310  GLY310      0.1869
    115  C         58.9120   68.3390   72.1700 C.2   310  GLY310      0.2309
    116  O         59.0510   68.4200   70.9480 O.2   310  GLY310     -0.2863
    117  N         60.9050   71.0630   71.1410 N.3   313  LEU313     -0.1245
    118  CA        61.9010   70.6020   70.1870 C.3   313  LEU313      0.1561
    119  C         61.2970   70.2770   68.8400 C.2   313  LEU313      0.2260
    120  O         61.9920   70.2580   67.8290 O.2   313  LEU313     -0.2867
    121  CB        62.6220   69.3730   70.7320 C.3   313  LEU313      0.0270
    122  CG        63.7690   68.8790   69.8540 C.3   313  LEU313      0.0019
    123  CD1       64.7840   70.0010   69.6430 C.3   313  LEU313      0.0001
    124  CD2       64.4180   67.6700   70.5010 C.3   313  LEU313      0.0001
    125  N         52.5480   60.2560   73.8920 N.3   338  CYS338     -0.1221
    126  CA        53.8920   59.9260   74.3510 C.3   338  CYS338      0.1808
    127  C         55.0020   60.6040   73.5790 C.2   338  CYS338      0.2602
    128  O         56.0100   59.9870   73.2460 O.2   338  CYS338     -0.2717
    129  CB        54.0950   58.4060   74.3420 C.3   338  CYS338      0.0970
    130  SG        52.7720   57.5020   75.2210 S.3   338  CYS338     -0.0800
    131  N         54.8010   61.8870   73.3010 N.am  339  SER339     -0.1938
    132  CA        55.7820   62.7150   72.6020 C.3   339  SER339      0.2055
    133  C         56.1410   62.3580   71.1670 C.2   339  SER339      0.2643
    134  O         56.5870   63.2270   70.4130 O.2   339  SER339     -0.2714
    135  CB        57.0800   62.7930   73.4220 C.3   339  SER339      0.2130
    136  OG        56.9150   63.5900   74.5790 O.3   339  SER339     -0.2179
    137  N         55.9490   61.1030   70.7720 N.am  340  TYR340     -0.1973
    138  CA        56.3240   60.7260   69.4170 C.3   340  TYR340      0.1639
    139  C         55.4600   59.6630   68.7730 C.2   340  TYR340      0.2290
    140  O         55.5890   59.4240   67.5800 O.2   340  TYR340     -0.2864
    141  CB        57.7620   60.2350   69.4220 C.3   340  TYR340      0.0560
    142  CG        57.9140   58.8660   70.0430 C.ar  340  TYR340     -0.0198
    143  CD1       57.9980   57.7220   69.2400 C.ar  340  TYR340     -0.0009
    144  CD2       57.9720   58.7090   71.4300 C.ar  340  TYR340     -0.0009
    145  CE1       58.1420   56.4560   69.7990 C.ar  340  TYR340      0.0417
    146  CE2       58.1160   57.4440   72.0040 C.ar  340  TYR340      0.0417
    147  CZ        58.2020   56.3210   71.1860 C.ar  340  TYR340      0.1957
    148  OH        58.3670   55.0680   71.7460 O.3   340  TYR340     -0.2866
@<TRIPOS>BOND
     1   140   139    2
     2   120   119    2
     3   139   138    1
     4   119   118    1
     5   143   145   ar
     6   143   142   ar
     7   138   141    1
     8   138   137    1
     9   141   142    1
    10   123   122    1
    11   145   147   ar
    12   122   124    1
    13   122   121    1
    14   142   144   ar
    15   118   121    1
    16   118   117    1
    17   134   133    2
    18   137   133   am
    19   116   115    2
    20   133   132    1
    21   147   148    1
    22   147   146   ar
    23    44    43    2
    24   144   146   ar
    25    43    42    1
    26   115   114    1
    27   132   131    1
    28   132   135    1
    29   114   113    1
    30   128   127    2
    31   131   127   am
    32   135   136    1
    33    42    41    1
    34    42    45    1
    35   127   126    1
    36   108   107    2
    37   125   126    1
    38    46    45    1
    39    45    47    1
    40   129   126    1
    41   129   130    1
    42   113   107   am
    43   107   106    1
    44    57    55   ar
    45    57    56   ar
    46   103   102    2
    47    55    53   ar
    48   106   109    1
    49   106   105    1
    50    56    54   ar
    51   102   101    1
    52    96    95    2
    53   112   110    1
    54   109   110    1
    55   101   104    1
    56   101   100    1
    57    27    29    1
    58    27    26    1
    59    22    23    1
    60    53    54   ar
    61    53    52    1
    62   110   111    1
    63    95   100   am
    64    95    94    1
    65    25    24    2
    66    26    23    1
    67    26    28    1
    68    52    49    1
    69    23    24    1
    70    94    97    1
    71    94    93    1
    72    97    98    1
    73    51    50    2
    74    50    49    1
    75    49    48    1
    76    98    99    1
    77    87    86    2
    78    21    20   ar
    79    21    19   ar
    80    20    18   ar
    81    93    86   am
    82    93    99    1
    83    86    85    1
    84    19    17   ar
    85    18    15   ar
    86    30    31    1
    87    83    81    1
    88    91    90   ar
    89    85    84    1
    90    85    88    1
    91    39    38    1
    92    17    15   ar
    93    17    16   ar
    94    81    82    1
    95    81    78    1
    96    15    13   ar
    97    38    40    1
    98    38    37    2
    99    36    37    1
   100    36    35    1
   101    90    92   ar
   102    90    89    1
   103    35    34    1
   104    88    89    1
   105    31    34    1
   106    31    32    1
   107     4     3    2
   108    33    32    2
   109    78    79    1
   110    78    77    1
   111    16    14   ar
   112    10     9    1
   113    10    11    2
   114    13    12    1
   115    13    14   ar
   116     9    12    1
   117     9     8    1
   118    79    80    2
   119    68    67    2
   120     3     8   am
   121     3     2    1
   122    64    62    1
   123    77    67   am
   124    63    62    1
   125    67    66    1
   126    62    59    1
   127     2     5    1
   128     2     1    1
   129     5     7    1
   130     5     6    1
   131    65    66    1
   132    65    60   am
   133    66    69    1
   134    73    71   ar
   135    73    75   ar
   136    71    70   ar
   137    76    75    1
   138    59    60    1
   139    59    58    1
   140    75    74   ar
   141    60    61    2
   142    70    69    1
   143    70    72   ar
   144    74    72   ar
