@<TRIPOS>MOLECULE
tmp/2idvA00.pdb
 143 140 0 0 0
SMALL
GASTEIGER

@<TRIPOS>ATOM
      1  N         -2.1250    2.5120   -8.4890 N.3    20  ARG20      -0.1231
      2  CA        -1.7900    3.2360   -7.2560 C.3    20  ARG20       0.1694
      3  C         -1.3860    4.6890   -7.5320 C.2    20  ARG20       0.2591
      4  O         -1.1880    5.4770   -6.6050 O.2    20  ARG20      -0.2718
      5  CB        -0.6680    2.4970   -6.5070 C.3    20  ARG20       0.0321
      6  CG        -1.1660    1.2800   -5.7220 C.3    20  ARG20       0.0489
      7  CD        -0.0770    0.5800   -4.9150 C.3    20  ARG20       0.2205
      8  NE         0.5520   -0.4920   -5.6750 N.pl3  20  ARG20      -0.0865
      9  CZ         1.4700   -0.3140   -6.6180 C.cat  20  ARG20       0.5346
     10  NH1        1.8920    0.9010   -6.9270 N.pl3  20  ARG20       0.1354
     11  NH2        1.9550   -1.3650   -7.2680 N.pl3  20  ARG20       0.1354
     12  N         -1.2930    5.0390   -8.8130 N.am   21  GLN21      -0.1979
     13  CA        -0.9180    6.3890   -9.2040 C.3    21  GLN21       0.1601
     14  C         -2.1150    7.3220   -9.1800 C.2    21  GLN21       0.2287
     15  O         -1.9590    8.5290   -9.0700 O.2    21  GLN21      -0.2864
     16  CB        -0.3040    6.3970  -10.6020 C.3    21  GLN21       0.0394
     17  CG         0.7810    5.3490  -10.8190 C.3    21  GLN21       0.0908
     18  CD         1.9200    5.4390   -9.8150 C.2    21  GLN21       0.2608
     19  OE1        2.5140    6.5020   -9.6190 O.2    21  GLN21      -0.2717
     20  NE2        2.2400    4.3130   -9.1860 N.am   21  GLN21      -0.0878
     21  N         -4.3520    8.0040   -4.8420 N.3    24  TRP24      -0.1241
     22  CA        -3.6620    7.1280   -3.9070 C.3    24  TRP24       0.1605
     23  C         -4.2820    7.1390   -2.5170 C.2    24  TRP24       0.2264
     24  O         -4.7730    8.1630   -2.0540 O.2    24  TRP24      -0.2867
     25  CB        -2.1860    7.5160   -3.7880 C.3    24  TRP24       0.0550
     26  CG        -1.4750    6.6980   -2.7610 C.ar   24  TRP24       0.0003
     27  CD1       -0.9220    5.4600   -2.9290 C.ar   24  TRP24       0.0946
     28  CD2       -1.3150    7.0250   -1.3740 C.ar   24  TRP24       0.0152
     29  NE1       -0.4260    4.9940   -1.7290 N.ar   24  TRP24      -0.2442
     30  CE2       -0.6570    5.9370   -0.7600 C.ar   24  TRP24       0.0810
     31  CE3       -1.6690    8.1330   -0.5930 C.ar   24  TRP24       0.0012
     32  CZ2       -0.3430    5.9260    0.6100 C.ar   24  TRP24       0.0191
     33  CZ3       -1.3590    8.1240    0.7660 C.ar   24  TRP24       0.0001
     34  CH2       -0.7020    7.0270    1.3520 C.ar   24  TRP24       0.0015
     35  N         -1.0660   -2.7890    1.0390 N.3    58  ASP58      -0.1239
     36  CA        -0.1440   -2.2210    2.0340 C.3    58  ASP58       0.1674
     37  C         -0.6860   -2.3910    3.4610 C.2    58  ASP58       0.2266
     38  O         -1.8480   -2.0720    3.7480 O.2    58  ASP58      -0.2867
     39  CB         0.1240   -0.7240    1.7790 C.3    58  ASP58       0.1410
     40  CG         1.1010   -0.4780    0.6350 C.2    58  ASP58       0.3668
     41  OD1        2.1930   -1.0930    0.6150 O.co2  58  ASP58      -0.2456
     42  OD2        0.7840    0.3500   -0.2430 O.co2  58  ASP58      -0.2456
     43  N         -0.4110    6.7530    8.0350 N.3    68  PRO68      -0.2102
     44  CA         0.5670    6.2750    7.0550 C.3    68  PRO68       0.1504
     45  C          0.6140    7.0980    5.7720 C.2    68  PRO68       0.2576
     46  O          0.4710    6.5500    4.6660 O.2    68  PRO68      -0.2718
     47  CB         0.1250    4.8370    6.7880 C.3    68  PRO68       0.0282
     48  CG        -0.5980    4.4540    8.0330 C.3    68  PRO68       0.0208
     49  CD        -1.4010    5.6990    8.3150 C.3    68  PRO68       0.0893
     50  N          0.8330    8.4040    5.9180 N.am   69  LYS69      -0.1966
     51  CA         0.9040    9.3080    4.7690 C.3    69  LYS69       0.1728
     52  C          2.0100   10.3600    4.8920 C.2    69  LYS69       0.2616
     53  O          2.2270   10.9440    5.9590 O.2    69  LYS69      -0.2715
     54  CB        -0.4500    9.9990    4.5760 C.3    69  LYS69       0.0311
     55  CG        -1.5300    9.0530    4.0620 C.3    69  LYS69       0.0038
     56  CD        -2.9440    9.6260    4.1430 C.3    69  LYS69       0.0206
     57  CE        -3.6090    9.3450    5.4920 C.3    69  LYS69       0.1093
     58  NZ        -5.1050    9.3460    5.3920 N.3    69  LYS69      -0.1314
     59  N          2.7130   10.6020    3.7930 N.am   70  TRP70      -0.1960
     60  CA         3.7760   11.6030    3.7990 C.3    70  TRP70       0.1771
     61  C          3.2260   12.9800    4.1990 C.2    70  TRP70       0.2619
     62  O          3.8760   13.7330    4.9260 O.2    70  TRP70      -0.2715
     63  CB         4.4150   11.7160    2.4160 C.3    70  TRP70       0.0590
     64  CG         5.0030   10.4410    1.8840 C.ar   70  TRP70       0.0006
     65  CD1        5.6450    9.4760    2.6000 C.ar   70  TRP70       0.0946
     66  CD2        5.0600   10.0320    0.5120 C.ar   70  TRP70       0.0152
     67  NE1        6.1000    8.4920    1.7610 N.ar   70  TRP70      -0.2442
     68  CE2        5.7550    8.8060    0.4720 C.ar   70  TRP70       0.0810
     69  CE3        4.5880   10.5850   -0.6910 C.ar   70  TRP70       0.0012
     70  CZ2        5.9970    8.1140   -0.7280 C.ar   70  TRP70       0.0191
     71  CZ3        4.8260    9.8940   -1.8880 C.ar   70  TRP70       0.0001
     72  CH2        5.5270    8.6720   -1.8910 C.ar   70  TRP70       0.0015
     73  N          2.0270   13.2980    3.7170 N.am   71  GLU71      -0.1977
     74  CA         1.3930   14.5800    3.9990 C.3    71  GLU71       0.1602
     75  C          1.0840   14.8170    5.4760 C.2    71  GLU71       0.2287
     76  O          0.7370   15.9280    5.8690 O.2    71  GLU71      -0.2864
     77  CB         0.1060   14.7220    3.1850 C.3    71  GLU71       0.0415
     78  CG        -0.9730   13.6930    3.5040 C.3    71  GLU71       0.1163
     79  CD        -1.3050   12.8070    2.3150 C.2    71  GLU71       0.3649
     80  OE1       -2.4430   12.3010    2.2570 O.co2  71  GLU71      -0.2457
     81  OE2       -0.4230   12.6030    1.4530 O.co2  71  GLU71      -0.2457
     82  N          5.0430   -3.5060    2.3270 N.3   118  SER118     -0.1217
     83  CA         4.4140   -3.4300    1.0090 C.3   118  SER118      0.1889
     84  C          4.6140   -4.6890    0.1780 C.2   118  SER118      0.2288
     85  O          5.7410   -5.1420   -0.0420 O.2   118  SER118     -0.2866
     86  CB         4.9510   -2.2320    0.2120 C.3   118  SER118      0.2089
     87  OG         4.6830   -0.9970    0.8510 O.3   118  SER118     -0.2183
     88  N          4.3700   -6.4840   -3.3990 N.3   120  ARG120     -0.1245
     89  CA         4.3250   -6.1720   -4.8170 C.3   120  ARG120      0.1563
     90  C          4.5640   -7.4050   -5.6900 C.2   120  ARG120      0.2260
     91  O          4.7380   -8.5190   -5.1760 O.2   120  ARG120     -0.2867
     92  CB         5.3430   -5.0730   -5.1400 C.3   120  ARG120      0.0307
     93  CG         5.0350   -3.7260   -4.4670 C.3   120  ARG120      0.0489
     94  CD         3.7300   -3.0940   -4.9680 C.3   120  ARG120      0.2205
     95  NE         3.4340   -1.8260   -4.2960 N.pl3 120  ARG120     -0.0865
     96  CZ         3.0290   -1.7170   -3.0330 C.cat 120  ARG120      0.5346
     97  NH1        2.8530   -2.8010   -2.2880 N.pl3 120  ARG120      0.1354
     98  NH2        2.8240   -0.5180   -2.4990 N.pl3 120  ARG120      0.1354
     99  N          8.5650   -5.2780    0.5960 N.3   125  ARG125     -0.1245
    100  CA         9.4320   -4.3650    1.3130 C.3   125  ARG125      0.1563
    101  C          8.8670   -4.0220    2.6690 C.2   125  ARG125      0.2260
    102  O          7.6610   -3.8540    2.8040 O.2   125  ARG125     -0.2867
    103  CB         9.6110   -3.0700    0.5080 C.3   125  ARG125      0.0307
    104  CG        10.0540   -3.2870   -0.9350 C.3   125  ARG125      0.0489
    105  CD        10.3360   -1.9720   -1.6380 C.3   125  ARG125      0.2205
    106  NE         9.1430   -1.1330   -1.7450 N.pl3 125  ARG125     -0.0865
    107  CZ         8.2920   -1.1940   -2.7620 C.cat 125  ARG125      0.5346
    108  NH1        8.5120   -2.0530   -3.7480 N.pl3 125  ARG125      0.1354
    109  NH2        7.2390   -0.3920   -2.8050 N.pl3 125  ARG125      0.1354
    110  N          9.2120    4.2890    9.3490 N.3   129  TRP129     -0.1241
    111  CA         9.1510    5.7360    9.1320 C.3   129  TRP129      0.1605
    112  C          9.6240    6.5680   10.3220 C.2   129  TRP129      0.2264
    113  O          9.2660    6.2870   11.4600 O.2   129  TRP129     -0.2867
    114  CB         7.7120    6.1200    8.7880 C.3   129  TRP129      0.0550
    115  CG         7.2330    5.6200    7.4460 C.ar  129  TRP129      0.0003
    116  CD1        7.7300    4.5620    6.7300 C.ar  129  TRP129      0.0946
    117  CD2        6.1980    6.1930    6.6320 C.ar  129  TRP129      0.0152
    118  NE1        7.0770    4.4510    5.5210 N.ar  129  TRP129     -0.2442
    119  CE2        6.1330    5.4390    5.4370 C.ar  129  TRP129      0.0810
    120  CE3        5.3230    7.2730    6.7970 C.ar  129  TRP129      0.0012
    121  CZ2        5.2270    5.7370    4.4050 C.ar  129  TRP129      0.0191
    122  CZ3        4.4110    7.5730    5.7700 C.ar  129  TRP129      0.0001
    123  CH2        4.3750    6.8090    4.5910 C.ar  129  TRP129      0.0015
    124  N         10.6930   11.1190   -2.1520 N.3   164  ALA164     -0.1231
    125  CA         9.7910   10.0480   -2.5580 C.3   164  ALA164      0.1694
    126  C          8.5970   10.6250   -3.3330 C.2   164  ALA164      0.2591
    127  O          8.0160    9.9630   -4.2000 O.2   164  ALA164     -0.2718
    128  CB         9.3100    9.2930   -1.3370 C.3   164  ALA164      0.0304
    129  N          8.2430   11.8660   -3.0080 N.am  165  LYS165     -0.1980
    130  CA         7.1400   12.5700   -3.6480 C.3   165  LYS165      0.1596
    131  C          7.4350   12.7660   -5.1330 C.2   165  LYS165      0.2287
    132  O          6.5190   12.8610   -5.9510 O.2   165  LYS165     -0.2864
    133  CB         6.9180   13.9280   -2.9740 C.3   165  LYS165      0.0298
    134  CG         6.1850   13.8460   -1.6320 C.3   165  LYS165      0.0038
    135  CD         6.0190   15.2320   -1.0080 C.3   165  LYS165      0.0206
    136  CE         5.0110   15.2440    0.1390 C.3   165  LYS165      0.1093
    137  NZ         5.4470   14.4100    1.2810 N.3   165  LYS165     -0.1314
    138  N          7.5260   12.3710   -8.5160 N.3   167  SER167     -0.1217
    139  CA         6.8300   11.4950   -9.4450 C.3   167  SER167      0.1889
    140  C          7.5970   11.4680  -10.7680 C.2   167  SER167      0.2288
    141  O          7.2920   10.6820  -11.6710 O.2   167  SER167     -0.2866
    142  CB         5.4090   12.0030   -9.6620 C.3   167  SER167      0.2089
    143  OG         5.3550   13.3030  -10.2090 O.3   167  SER167     -0.2183
@<TRIPOS>BOND
     1   141   140    2
     2    17    16    1
     3    17    18    1
     4   140   139    1
     5    16    13    1
     6   143   142    1
     7    18    19    2
     8    18    20   am
     9   142   139    1
    10   139   138    1
    11    13    14    1
    12    13    12    1
    13    14    15    2
    14    12     3   am
    15     1     2    1
    16     3     2    1
    17     3     4    2
    18    11     9    1
    19     2     5    1
    20    10     9    1
    21     9     8    2
    22     5     6    1
    23   132   131    2
    24     6     7    1
    25    90    91    2
    26    90    89    1
    27     8     7    1
    28    92    89    1
    29    92    93    1
    30   131   130    1
    31    94    93    1
    32    94    95    1
    33    21    22    1
    34    89    88    1
    35    95    96    2
    36   127   126    2
    37    22    25    1
    38    22    23    1
    39    25    26    1
    40   108   107    1
    41   130   129    1
    42   130   133    1
    43   126   129   am
    44   126   125    1
    45    96    98    1
    46    96    97    1
    47   133   134    1
    48    27    26   ar
    49    27    29   ar
    50   109   107    1
    51   107   106    2
    52    26    28   ar
    53   125   124    1
    54   125   128    1
    55    23    24    2
    56    72    71   ar
    57    72    70   ar
    58    71    69   ar
    59   106   105    1
    60    29    30   ar
    61   105   104    1
    62   134   135    1
    63    28    30   ar
    64    28    31   ar
    65   135   136    1
    66   104   103    1
    67    30    32   ar
    68    70    68   ar
    69    69    66   ar
    70    31    33   ar
    71    42    40   ar
    72    85    84    2
    73   136   137    1
    74    84    83    1
    75    86    87    1
    76    86    83    1
    77    68    66   ar
    78    68    67   ar
    79   103   100    1
    80    66    64   ar
    81    99   100    1
    82    32    34   ar
    83    41    40   ar
    84    40    39    1
    85    33    34   ar
    86    83    82    1
    87    35    36    1
    88   100   101    1
    89    81    79   ar
    90    67    65   ar
    91    39    36    1
    92    64    63    1
    93    64    65   ar
    94    36    37    1
    95    80    79   ar
    96    79    78    1
    97    63    60    1
    98   101   102    2
    99    77    78    1
   100    77    74    1
   101    37    38    2
   102    73    74    1
   103    73    61   am
   104    59    60    1
   105    59    52   am
   106    60    61    1
   107    74    75    1
   108    55    56    1
   109    55    54    1
   110    56    57    1
   111    61    62    2
   112   121   123   ar
   113   121   119   ar
   114    54    51    1
   115   123   122   ar
   116    46    45    2
   117    51    52    1
   118    51    50    1
   119    52    53    2
   120    58    57    1
   121   119   118   ar
   122   119   117   ar
   123    75    76    2
   124   118   116   ar
   125   122   120   ar
   126    45    50   am
   127    45    44    1
   128   117   120   ar
   129   117   115   ar
   130   116   115   ar
   131    47    44    1
   132    47    48    1
   133    44    43    1
   134   115   114    1
   135    48    49    1
   136    43    49    1
   137   114   111    1
   138   111   110    1
   139   111   112    1
   140   112   113    2
