@<TRIPOS>MOLECULE
tmp/2iegA01.pdb
 115 116 0 0 0
SMALL
GASTEIGER

@<TRIPOS>ATOM
      1  N         62.2390   40.9280   52.7410 N.3    49  ARG49      -0.1245
      2  CA        62.7630   40.5580   51.4230 C.3    49  ARG49       0.1563
      3  C         63.5610   39.2450   51.4260 C.2    49  ARG49       0.2260
      4  O         63.5000   38.4860   50.4570 O.2    49  ARG49      -0.2867
      5  CB        63.5780   41.7350   50.8510 C.3    49  ARG49       0.0307
      6  CG        64.5610   41.4090   49.8170 C.3    49  ARG49       0.0489
      7  CD        65.4180   42.6080   49.3600 C.3    49  ARG49       0.2205
      8  NE        66.8250   42.4460   49.7210 N.pl3  49  ARG49      -0.0865
      9  CZ        67.7910   43.2850   49.3840 C.cat  49  ARG49       0.5346
     10  NH1       67.5410   44.3650   48.6380 N.pl3  49  ARG49       0.1354
     11  NH2       69.0220   43.0380   49.7830 N.pl3  49  ARG49       0.1354
     12  N         61.5300   36.3010   50.6070 N.3    52  LEU52      -0.1231
     13  CA        61.1640   36.1340   49.2080 C.3    52  LEU52       0.1693
     14  C         62.1370   35.2850   48.4160 C.2    52  LEU52       0.2591
     15  O         61.7370   34.6700   47.4320 O.2    52  LEU52      -0.2718
     16  CB        61.0310   37.4990   48.5280 C.3    52  LEU52       0.0284
     17  CG        59.7220   38.2420   48.7770 C.3    52  LEU52       0.0019
     18  CD1       59.7920   39.6410   48.1890 C.3    52  LEU52       0.0001
     19  CD2       58.5490   37.4550   48.1880 C.3    52  LEU52       0.0001
     20  N         63.3940   35.2200   48.8470 N.am   53  VAL53      -0.1980
     21  CA        64.4790   34.7820   47.9660 C.3    53  VAL53       0.1595
     22  C         64.3680   33.3620   47.4840 C.2    53  VAL53       0.2287
     23  O         64.4520   33.1190   46.2900 O.2    53  VAL53      -0.2864
     24  CB        65.8620   34.9140   48.6220 C.3    53  VAL53       0.0276
     25  CG1       66.9090   34.1270   47.8170 C.3    53  VAL53       0.0022
     26  CG2       66.2510   36.3520   48.7040 C.3    53  VAL53       0.0022
     27  N         61.4510   32.8320   45.1900 N.3    56  TRP56      -0.1241
     28  CA        61.7520   33.4190   43.8900 C.3    56  TRP56       0.1605
     29  C         62.6120   32.4600   43.0960 C.2    56  TRP56       0.2264
     30  O         62.2520   32.0700   41.9980 O.2    56  TRP56      -0.2867
     31  CB        62.4630   34.7600   44.0540 C.3    56  TRP56       0.0550
     32  CG        62.2420   35.7810   42.9520 C.ar   56  TRP56       0.0003
     33  CD1       61.3660   35.7120   41.8860 C.ar   56  TRP56       0.0946
     34  CD2       62.9120   37.0330   42.8300 C.ar   56  TRP56       0.0152
     35  NE1       61.4490   36.8620   41.1370 N.ar   56  TRP56      -0.2442
     36  CE2       62.4020   37.6820   41.6840 C.ar   56  TRP56       0.0810
     37  CE3       63.9040   37.6760   43.5750 C.ar   56  TRP56       0.0012
     38  CZ2       62.8520   38.9400   41.2700 C.ar   56  TRP56       0.0191
     39  CZ3       64.3380   38.9380   43.1790 C.ar   56  TRP56       0.0001
     40  CH2       63.8150   39.5550   42.0330 C.ar   56  TRP56       0.0015
     41  N         66.2020   51.3710   46.2220 N.3   176  ASN176     -0.1226
     42  CA        64.9930   50.5620   46.1770 C.3   176  ASN176      0.1770
     43  C         65.3610   49.1330   46.5640 C.2   176  ASN176      0.2439
     44  O         66.0070   48.4370   45.7930 O.2   176  ASN176     -0.2733
     45  CB        64.4210   50.6310   44.7610 C.3   176  ASN176      0.1168
     46  CG        63.2370   49.7040   44.5400 C.2   176  ASN176      0.2627
     47  OD1       62.6040   49.2420   45.4840 O.2   176  ASN176     -0.2716
     48  ND2       62.9550   49.4030   43.2670 N.am  176  ASN176     -0.0877
     49  N         64.9700   48.6850   47.7470 N.am  177  PRO177     -0.2718
     50  CA        65.2900   47.3100   48.1650 C.3   177  PRO177      0.1535
     51  C         64.5230   46.2310   47.3870 C.2   177  PRO177      0.2599
     52  O         65.0100   45.1330   47.2610 O.2   177  PRO177     -0.2715
     53  CB        64.9770   47.3060   49.6730 C.3   177  PRO177      0.0310
     54  CG        64.0940   48.4720   49.9170 C.3   177  PRO177      0.0237
     55  CD        64.2170   49.4240   48.7730 C.3   177  PRO177      0.0939
     56  N         63.3930   46.5740   46.7880 N.am  178  TRP178     -0.1960
     57  CA        62.5440   45.6030   46.0860 C.3   178  TRP178      0.1771
     58  C         62.8540   45.4650   44.6120 C.2   178  TRP178      0.2620
     59  O         62.0340   44.9530   43.8550 O.2   178  TRP178     -0.2715
     60  CB        61.0840   46.0160   46.2030 C.3   178  TRP178      0.0590
     61  CG        60.6880   46.3840   47.5590 C.ar  178  TRP178      0.0006
     62  CD1       60.3840   47.6200   48.0040 C.ar  178  TRP178      0.0946
     63  CD2       60.5590   45.5050   48.6820 C.ar  178  TRP178      0.0152
     64  NE1       60.0670   47.5790   49.3390 N.ar  178  TRP178     -0.2442
     65  CE2       60.1630   46.2890   49.7790 C.ar  178  TRP178      0.0810
     66  CE3       60.7350   44.1290   48.8700 C.ar  178  TRP178      0.0012
     67  CZ2       59.9320   45.7490   51.0500 C.ar  178  TRP178      0.0191
     68  CZ3       60.5110   43.5880   50.1390 C.ar  178  TRP178      0.0001
     69  CH2       60.1180   44.4020   51.2090 C.ar  178  TRP178      0.0015
     70  N         64.0010   45.9530   44.1630 N.am  179  GLU179     -0.1963
     71  CA        64.4190   45.6320   42.8140 C.3   179  GLU179      0.1733
     72  C         65.7630   44.9590   42.8870 C.2   179  GLU179      0.2616
     73  O         66.5400   45.1770   43.8180 O.2   179  GLU179     -0.2715
     74  CB        64.4920   46.8720   41.9250 C.3   179  GLU179      0.0429
     75  CG        65.6860   47.7300   42.2460 C.3   179  GLU179      0.1163
     76  CD        65.6750   49.0940   41.6180 C.2   179  GLU179      0.3649
     77  OE1       64.6870   49.5150   40.9360 O.co2 179  GLU179     -0.2457
     78  OE2       66.6780   49.7760   41.8740 O.co2 179  GLU179     -0.2457
     79  N         66.0250   44.1530   41.8700 N.am  180  LYS180     -0.1963
     80  CA        67.2580   43.4380   41.7270 C.3   180  LYS180      0.1728
     81  C         67.8060   43.7140   40.3180 C.2   180  LYS180      0.2616
     82  O         67.2990   43.1570   39.3380 O.2   180  LYS180     -0.2715
     83  CB        66.9970   41.9470   41.9510 C.3   180  LYS180      0.0311
     84  CG        68.2290   41.2050   42.3620 C.3   180  LYS180      0.0038
     85  CD        69.0560   40.8890   41.1670 C.3   180  LYS180      0.0206
     86  CE        70.2830   40.1460   41.5380 C.3   180  LYS180      0.1093
     87  NZ        71.1640   41.0340   42.2930 N.3   180  LYS180     -0.1314
     88  N         68.8200   44.5810   40.2250 N.am  181  ALA181     -0.1977
     89  CA        69.4430   44.8890   38.9320 C.3   181  ALA181      0.1597
     90  C         70.0520   43.6390   38.3620 C.2   181  ALA181      0.2287
     91  O         70.7150   42.9020   39.0880 O.2   181  ALA181     -0.2864
     92  CB        70.5170   45.9300   39.0710 C.3   181  ALA181      0.0319
     93  N         72.2870   43.3980   35.4120 N.3   183  PRO183     -0.2102
     94  CA        73.0920   44.0210   34.3410 C.3   183  PRO183      0.1504
     95  C         73.7170   43.0260   33.3400 C.2   183  PRO183      0.2575
     96  O         74.2760   43.4310   32.3250 O.2   183  PRO183     -0.2718
     97  CB        74.1680   44.7770   35.1210 C.3   183  PRO183      0.0282
     98  CG        74.2530   44.0590   36.4240 C.3   183  PRO183      0.0208
     99  CD        72.8550   43.6550   36.7500 C.3   183  PRO183      0.0893
    100  N         73.5290   41.7400   33.6210 N.am  184  GLU184     -0.1980
    101  CA        74.1230   40.6050   32.9330 C.3   184  GLU184      0.1602
    102  C         73.2850   40.2220   31.7240 C.2   184  GLU184      0.2287
    103  O         73.7440   39.5190   30.8070 O.2   184  GLU184     -0.2864
    104  CB        74.1400   39.4120   33.9150 C.3   184  GLU184      0.0415
    105  CG        73.9760   39.7940   35.4050 C.3   184  GLU184      0.1163
    106  CD        72.8890   39.0400   36.1650 C.2   184  GLU184      0.3649
    107  OE1       72.2660   38.0810   35.6300 O.co2 184  GLU184     -0.2457
    108  OE2       72.6750   39.4040   37.3540 O.co2 184  GLU184     -0.2457
    109  N         60.2950   41.2590   42.6170 N.3   217  PRO217     -0.2116
    110  CA        59.5300   40.0540   42.9380 C.3   217  PRO217      0.1372
    111  C         58.0450   40.3550   43.0810 C.2   217  PRO217      0.2244
    112  O         57.7010   41.4200   43.5580 O.2   217  PRO217     -0.2868
    113  CB        60.1460   39.5920   44.2670 C.3   217  PRO217      0.0268
    114  CG        60.7250   40.7810   44.8730 C.3   217  PRO217      0.0207
    115  CD        61.0510   41.7530   43.7750 C.3   217  PRO217      0.0892
@<TRIPOS>BOND
     1   103   102    2
     2   102   101    1
     3    96    95    2
     4   101   100    1
     5   101   104    1
     6    95   100   am
     7    95    94    1
     8   104   105    1
     9    94    97    1
    10    94    93    1
    11    97    98    1
    12   105   106    1
    13    93    99    1
    14   107   106   ar
    15   106   108   ar
    16    98    99    1
    17    90    89    1
    18    90    91    2
    19    89    92    1
    20    89    88    1
    21    82    81    2
    22    88    81   am
    23    81    80    1
    24    77    76   ar
    25    35    36   ar
    26    35    33   ar
    27    85    86    1
    28    85    84    1
    29    38    36   ar
    30    38    40   ar
    31    86    87    1
    32    76    78   ar
    33    76    75    1
    34    36    34   ar
    35    80    79    1
    36    80    83    1
    37    79    72   am
    38    33    32   ar
    39    74    75    1
    40    74    71    1
    41    83    84    1
    42    30    29    2
    43    40    39   ar
    44   109   110    1
    45   109   115    1
    46    71    72    1
    47    71    70    1
    48    34    32   ar
    49    34    37   ar
    50    72    73    2
    51   110   111    1
    52   110   113    1
    53    32    31    1
    54   111   112    2
    55    29    28    1
    56    39    37   ar
    57    48    46   am
    58   115   114    1
    59    59    58    2
    60    28    31    1
    61    28    27    1
    62    70    58   am
    63   113   114    1
    64    46    45    1
    65    46    47    2
    66    58    57    1
    67    45    42    1
    68    44    43    2
    69    57    60    1
    70    57    56    1
    71    42    41    1
    72    42    43    1
    73    60    61    1
    74    23    22    2
    75    43    49   am
    76    56    51   am
    77    52    51    2
    78    51    50    1
    79    15    14    2
    80    22    21    1
    81    61    62   ar
    82    61    63   ar
    83    49    50    1
    84    49    55    1
    85    25    24    1
    86    21    24    1
    87    21    20    1
    88    62    64   ar
    89    50    53    1
    90    19    17    1
    91    18    17    1
    92    14    20   am
    93    14    13    1
    94    16    17    1
    95    16    13    1
    96    24    26    1
    97    10     9    1
    98    63    66   ar
    99    63    65   ar
   100    55    54    1
   101    66    68   ar
   102    13    12    1
   103    64    65   ar
   104     7     8    1
   105     7     6    1
   106     9     8    2
   107     9    11    1
   108    53    54    1
   109    65    67   ar
   110     6     5    1
   111    68    69   ar
   112     4     3    2
   113     5     2    1
   114    67    69   ar
   115     2     3    1
   116     2     1    1
