@<TRIPOS>MOLECULE
tmp/2iegA02.pdb
 115 114 0 0 0
SMALL
GASTEIGER

@<TRIPOS>ATOM
      1  N         74.7130   45.3700   59.6840 N.3    26  PHE26      -0.1227
      2  CA        75.5960   45.0130   58.5730 C.3    26  PHE26       0.1736
      3  C         75.2050   45.6810   57.2530 C.2    26  PHE26       0.2596
      4  O         76.0740   46.0470   56.4660 O.2    26  PHE26      -0.2718
      5  CB        75.6360   43.4980   58.4040 C.3    26  PHE26       0.0547
      6  CG        76.3910   42.7860   59.5070 C.ar   26  PHE26      -0.0202
      7  CD1       77.7480   43.0090   59.6800 C.ar   26  PHE26      -0.0042
      8  CD2       75.7350   41.9130   60.3700 C.ar   26  PHE26      -0.0042
      9  CE1       78.4570   42.3560   60.6980 C.ar   26  PHE26      -0.0003
     10  CE2       76.4270   41.2650   61.3910 C.ar   26  PHE26      -0.0003
     11  CZ        77.7890   41.4780   61.5550 C.ar   26  PHE26      -0.0000
     12  N         73.8980   45.8330   57.0280 N.am   27  THR27      -0.1939
     13  CA        73.3670   46.4050   55.7880 C.3    27  THR27       0.2028
     14  C         73.2870   47.9260   55.8410 C.2    27  THR27       0.2642
     15  O         73.5930   48.6050   54.8650 O.2    27  THR27      -0.2714
     16  CB        71.9670   45.8290   55.4850 C.3    27  THR27       0.1808
     17  OG1       72.0360   44.4010   55.3990 O.3    27  THR27      -0.2208
     18  CG2       71.4640   46.2550   54.1080 C.3    27  THR27       0.0379
     19  N         72.8810   48.4620   56.9830 N.am   28  LEU28      -0.1963
     20  CA        72.6270   49.8840   57.1210 C.3    28  LEU28       0.1728
     21  C         73.6590   50.6090   57.9660 C.2    28  LEU28       0.2616
     22  O         73.5960   51.8340   58.0880 O.2    28  LEU28      -0.2715
     23  CB        71.2460   50.0750   57.7050 C.3    28  LEU28       0.0311
     24  CG        70.2150   49.5480   56.7030 C.3    28  LEU28       0.0022
     25  CD1       68.9140   49.1950   57.3890 C.3    28  LEU28       0.0001
     26  CD2       69.9940   50.5780   55.6200 C.3    28  LEU28       0.0001
     27  N         74.5970   49.8500   58.5350 N.am   29  VAL29      -0.1977
     28  CA        75.7830   50.4020   59.2100 C.3    29  VAL29       0.1596
     29  C         75.3790   51.3410   60.3370 C.2    29  VAL29       0.2287
     30  O         75.9880   52.3700   60.5290 O.2    29  VAL29      -0.2864
     31  CB        76.7060   51.1490   58.2160 C.3    29  VAL29       0.0276
     32  CG1       78.0890   51.4320   58.8450 C.3    29  VAL29       0.0022
     33  CG2       76.8630   50.3460   56.9600 C.3    29  VAL29       0.0022
     34  N         64.0400   56.1020   58.7210 N.3    38  ARG38      -0.1231
     35  CA        64.2570   55.5070   57.4190 C.3    38  ARG38       0.1694
     36  C         65.1180   54.2510   57.5070 C.2    38  ARG38       0.2592
     37  O         64.7980   53.2400   56.8870 O.2    38  ARG38      -0.2718
     38  CB        64.9260   56.5170   56.5040 C.3    38  ARG38       0.0321
     39  CG        65.0290   56.0950   55.0620 C.3    38  ARG38       0.0489
     40  CD        65.4010   57.2350   54.1450 C.3    38  ARG38       0.2205
     41  NE        64.1940   57.8430   53.5620 N.pl3  38  ARG38      -0.0865
     42  CZ        63.5560   58.9150   54.0370 C.cat  38  ARG38       0.5346
     43  NH1       63.9960   59.5560   55.1230 N.pl3  38  ARG38       0.1354
     44  NH2       62.4590   59.3560   53.4180 N.pl3  38  ARG38       0.1354
     45  N         66.2150   54.3130   58.2610 N.am   39  ASP39      -0.1974
     46  CA        66.9720   53.1060   58.5910 C.3    39  ASP39       0.1709
     47  C         66.0890   51.9670   59.0840 C.2    39  ASP39       0.2293
     48  O         66.2530   50.8370   58.6220 O.2    39  ASP39      -0.2864
     49  CB        68.0550   53.3790   59.6460 C.3    39  ASP39       0.1436
     50  CG        69.1820   54.2590   59.1230 C.2    39  ASP39       0.3671
     51  OD1       69.6370   54.0140   57.9750 O.co2  39  ASP39      -0.2456
     52  OD2       69.6760   55.2020   59.8020 O.co2  39  ASP39      -0.2456
     53  N         64.1360   50.5260   56.1870 N.3    42  PHE42      -0.1241
     54  CA        65.0150   49.6890   55.3570 C.3    42  PHE42       0.1605
     55  C         65.3980   48.3800   56.0660 C.2    42  PHE42       0.2264
     56  O         65.6070   47.3560   55.4120 O.2    42  PHE42      -0.2867
     57  CB        66.3020   50.4260   54.9290 C.3    42  PHE42       0.0534
     58  CG        66.1070   51.4460   53.8100 C.ar   42  PHE42      -0.0203
     59  CD1       65.3970   51.1320   52.6490 C.ar   42  PHE42      -0.0042
     60  CD2       66.6650   52.7160   53.9250 C.ar   42  PHE42      -0.0042
     61  CE1       65.2240   52.0840   51.6230 C.ar   42  PHE42      -0.0003
     62  CE2       66.5190   53.6820   52.9050 C.ar   42  PHE42      -0.0003
     63  CZ        65.7900   53.3590   51.7470 C.ar   42  PHE42      -0.0000
     64  N         64.4750   44.7580   54.2310 N.3    46  HIS46      -0.1241
     65  CA        65.4320   43.6770   53.9580 C.3    46  HIS46       0.1621
     66  C         65.1020   42.3650   54.6570 C.2    46  HIS46       0.2264
     67  O         65.2350   41.3160   54.0570 O.2    46  HIS46      -0.2867
     68  CB        66.8730   44.0810   54.3390 C.3    46  HIS46       0.0745
     69  CG        67.4710   45.0950   53.4130 C.ar   46  HIS46       0.0817
     70  ND1       66.9760   46.3730   53.3030 N.ar   46  HIS46      -0.2268
     71  CD2       68.4880   45.0080   52.5240 C.ar   46  HIS46       0.1154
     72  CE1       67.6720   47.0390   52.4030 C.ar   46  HIS46       0.1986
     73  NE2       68.5950   46.2320   51.9120 N.ar   46  HIS46      -0.2212
     74  N         62.2390   40.9280   52.7410 N.3    49  ARG49      -0.1245
     75  CA        62.7630   40.5580   51.4230 C.3    49  ARG49       0.1563
     76  C         63.5610   39.2450   51.4260 C.2    49  ARG49       0.2260
     77  O         63.5000   38.4860   50.4570 O.2    49  ARG49      -0.2867
     78  CB        63.5780   41.7350   50.8510 C.3    49  ARG49       0.0307
     79  CG        64.5610   41.4090   49.8170 C.3    49  ARG49       0.0489
     80  CD        65.4180   42.6080   49.3600 C.3    49  ARG49       0.2205
     81  NE        66.8250   42.4460   49.7210 N.pl3  49  ARG49      -0.0865
     82  CZ        67.7910   43.2850   49.3840 C.cat  49  ARG49       0.5346
     83  NH1       67.5410   44.3650   48.6380 N.pl3  49  ARG49       0.1354
     84  NH2       69.0220   43.0380   49.7830 N.pl3  49  ARG49       0.1354
     85  N         66.5280   57.2230   47.6590 N.3   174  TYR174     -0.1227
     86  CA        67.1950   56.5440   48.7610 C.3   174  TYR174      0.1736
     87  C         67.6690   55.1300   48.4520 C.2   174  TYR174      0.2596
     88  O         68.3670   54.5400   49.2790 O.2   174  TYR174     -0.2718
     89  CB        66.2590   56.4940   49.9680 C.3   174  TYR174      0.0548
     90  CG        65.7840   57.8560   50.4010 C.ar  174  TYR174     -0.0200
     91  CD1       66.6980   58.8450   50.7710 C.ar  174  TYR174     -0.0009
     92  CD2       64.4380   58.1770   50.4080 C.ar  174  TYR174     -0.0009
     93  CE1       66.2800   60.1070   51.1720 C.ar  174  TYR174      0.0417
     94  CE2       64.0060   59.4460   50.8030 C.ar  174  TYR174      0.0417
     95  CZ        64.9330   60.4020   51.1950 C.ar  174  TYR174      0.1957
     96  OH        64.5230   61.6600   51.5950 O.3   174  TYR174     -0.2866
     97  N         67.3120   54.6020   47.2770 N.am  175  GLY175     -0.1942
     98  CA        67.6070   53.2270   46.9070 C.3   175  GLY175      0.2014
     99  C         66.3520   52.3770   47.0680 C.2   175  GLY175      0.2639
    100  O         65.5440   52.6090   47.9600 O.2   175  GLY175     -0.2714
    101  N         66.2020   51.3710   46.2220 N.am  176  ASN176     -0.1958
    102  CA        64.9930   50.5620   46.1770 C.3   176  ASN176      0.1804
    103  C         65.3610   49.1330   46.5640 C.2   176  ASN176      0.2463
    104  O         66.0070   48.4370   45.7930 O.2   176  ASN176     -0.2730
    105  CB        64.4210   50.6310   44.7610 C.3   176  ASN176      0.1195
    106  CG        63.2370   49.7040   44.5400 C.2   176  ASN176      0.2630
    107  OD1       62.6040   49.2420   45.4840 O.2   176  ASN176     -0.2716
    108  ND2       62.9550   49.4030   43.2670 N.am  176  ASN176     -0.0877
    109  N         64.9700   48.6850   47.7470 N.am  177  PRO177     -0.2727
    110  CA        65.2900   47.3100   48.1650 C.3   177  PRO177      0.1402
    111  C         64.5230   46.2310   47.3870 C.2   177  PRO177      0.2269
    112  O         65.0100   45.1330   47.2610 O.2   177  PRO177     -0.2865
    113  CB        64.9770   47.3060   49.6730 C.3   177  PRO177      0.0296
    114  CG        64.0940   48.4720   49.9170 C.3   177  PRO177      0.0237
    115  CD        64.2170   49.4240   48.7730 C.3   177  PRO177      0.0939
@<TRIPOS>BOND
     1   108   106   am
     2   106   105    1
     3   106   107    2
     4   105   102    1
     5   104   103    2
     6   102   101    1
     7   102   103    1
     8   101    99   am
     9   103   109   am
    10    98    99    1
    11    98    97    1
    12    99   100    2
    13   112   111    2
    14    97    87   am
    15   111   110    1
    16    85    86    1
    17   109   110    1
    18   109   115    1
    19   110   113    1
    20    87    86    1
    21    87    88    2
    22    83    82    1
    23    86    89    1
    24   115   114    1
    25    80    81    1
    26    80    79    1
    27    82    81    2
    28    82    84    1
    29   113   114    1
    30    79    78    1
    31    89    90    1
    32    90    92   ar
    33    90    91   ar
    34    92    94   ar
    35    77    76    2
    36    91    93   ar
    37    94    95   ar
    38    78    75    1
    39    93    95   ar
    40    95    96    1
    41    75    76    1
    42    75    74    1
    43    61    63   ar
    44    61    59   ar
    45    63    62   ar
    46    73    72   ar
    47    73    71   ar
    48    72    70   ar
    49    71    69   ar
    50    59    58   ar
    51    62    60   ar
    52    70    69   ar
    53    69    68    1
    54    44    42    1
    55    41    42    2
    56    41    40    1
    57    58    60   ar
    58    58    57    1
    59    65    64    1
    60    65    68    1
    61    65    66    1
    62    42    43    1
    63    67    66    2
    64    18    16    1
    65    40    39    1
    66    15    14    2
    67    57    54    1
    68    39    38    1
    69    54    55    1
    70    54    53    1
    71    17    16    1
    72    56    55    2
    73    16    13    1
    74    26    24    1
    75    13    14    1
    76    13    12    1
    77    14    19   am
    78     4     3    2
    79    38    35    1
    80    24    25    1
    81    24    23    1
    82    37    36    2
    83    33    31    1
    84    19    20    1
    85    12     3   am
    86    20    23    1
    87    20    21    1
    88     3     2    1
    89    35    36    1
    90    35    34    1
    91    36    45   am
    92    21    22    2
    93    21    27   am
    94    51    50   ar
    95    31    32    1
    96    31    28    1
    97    45    46    1
    98     5     2    1
    99     5     6    1
   100    27    28    1
   101     2     1    1
   102    46    47    1
   103    46    49    1
   104    48    47    2
   105    50    49    1
   106    50    52   ar
   107    28    29    1
   108     6     7   ar
   109     6     8   ar
   110     7     9   ar
   111    29    30    2
   112     8    10   ar
   113     9    11   ar
   114    10    11   ar
