@<TRIPOS>MOLECULE
tmp/2iehA02.pdb
 99 96 0 0 0
SMALL
GASTEIGER

@<TRIPOS>ATOM
      1  N         19.0040   -4.4880  103.4950 N.3    10  ARG10      -0.1245
      2  CA        17.9980   -4.0560  104.4490 C.3    10  ARG10       0.1563
      3  C         16.6640   -3.7980  103.7660 C.2    10  ARG10       0.2260
      4  O         16.5300   -2.8530  102.9870 O.2    10  ARG10      -0.2867
      5  CB        18.4270   -2.7830  105.1660 C.3    10  ARG10       0.0307
      6  CG        17.4350   -2.4100  106.2340 C.3    10  ARG10       0.0489
      7  CD        17.4700   -0.9500  106.6000 C.3    10  ARG10       0.2205
      8  NE        16.8600   -0.7590  107.9100 N.pl3  10  ARG10      -0.0865
      9  CZ        16.8570    0.3760  108.6020 C.cat  10  ARG10       0.5346
     10  NH1       17.4370    1.4660  108.1160 N.pl3  10  ARG10       0.1354
     11  NH2       16.2800    0.4100  109.8000 N.pl3  10  ARG10       0.1354
     12  N          9.8850   -1.9670  105.8820 N.3    13  PRO13      -0.2116
     13  CA         8.5650   -2.5400  106.1060 C.3    13  PRO13       0.1372
     14  C          7.5950   -1.8140  105.2080 C.2    13  PRO13       0.2244
     15  O          7.9330   -0.8070  104.5840 O.2    13  PRO13      -0.2868
     16  CB         8.2990   -2.2180  107.5630 C.3    13  PRO13       0.0268
     17  CG         8.9050   -0.8580  107.6720 C.3    13  PRO13       0.0207
     18  CD        10.2500   -1.0850  107.0030 C.3    13  PRO13       0.0892
     19  N         12.3180   -6.3600  107.5670 N.3    60  ALA60      -0.1231
     20  CA        11.4770   -5.2080  107.8320 C.3    60  ALA60       0.1694
     21  C         11.4250   -4.7730  109.2960 C.2    60  ALA60       0.2593
     22  O         11.3970   -3.5910  109.5610 O.2    60  ALA60      -0.2718
     23  CB        10.0750   -5.4660  107.3220 C.3    60  ALA60       0.0304
     24  N         11.4320   -5.7040  110.2460 N.am   61  SER61      -0.1938
     25  CA        11.3490   -5.3210  111.6590 C.3    61  SER61       0.2055
     26  C         12.5700   -4.6190  112.2470 C.2    61  SER61       0.2644
     27  O         12.5090   -4.1320  113.3750 O.2    61  SER61      -0.2714
     28  CB        11.0380   -6.5420  112.5290 C.3    61  SER61       0.2130
     29  OG        12.1470   -7.4190  112.6040 O.3    61  SER61      -0.2179
     30  N         13.6680   -4.5680  111.4970 N.am   62  THR62      -0.1936
     31  CA        14.9030   -3.9480  111.9650 C.3    62  THR62       0.2028
     32  C         14.8020   -2.4600  112.2400 C.2    62  THR62       0.2642
     33  O         14.4130   -1.6910  111.3840 O.2    62  THR62      -0.2714
     34  CB        16.0490   -4.1510  110.9560 C.3    62  THR62       0.1808
     35  OG1       16.2000   -5.5490  110.6770 O.3    62  THR62      -0.2208
     36  CG2       17.3610   -3.5850  111.5140 C.3    62  THR62       0.0379
     37  N         15.1940   -2.0620  113.4440 N.am   63  LYS63      -0.1963
     38  CA        15.1740   -0.6600  113.8470 C.3    63  LYS63       0.1728
     39  C         16.5470    0.0250  113.6680 C.2    63  LYS63       0.2616
     40  O         17.5780   -0.6410  113.5860 O.2    63  LYS63      -0.2715
     41  CB        14.7380   -0.5560  115.3050 C.3    63  LYS63       0.0311
     42  CG        13.3520   -1.0770  115.6040 C.3    63  LYS63       0.0038
     43  CD        12.3930   -0.8330  114.4570 C.3    63  LYS63       0.0206
     44  CE        10.9530   -1.1410  114.8460 C.3    63  LYS63       0.1093
     45  NZ        10.0710   -1.1570  113.6570 N.3    63  LYS63      -0.1314
     46  N         16.5600    1.3530  113.6220 N.am   64  GLN64      -0.1963
     47  CA        17.8040    2.0810  113.4300 C.3    64  GLN64       0.1733
     48  C         18.8830    1.5620  114.3740 C.2    64  GLN64       0.2616
     49  O         19.9560    1.1530  113.9330 O.2    64  GLN64      -0.2715
     50  CB        17.6040    3.5970  113.6490 C.3    64  GLN64       0.0408
     51  CG        16.5920    4.2900  112.7230 C.3    64  GLN64       0.0908
     52  CD        16.9950    4.2950  111.2640 C.2    64  GLN64       0.2608
     53  OE1       17.3560    3.2580  110.7000 O.2    64  GLN64      -0.2717
     54  NE2       16.9260    5.4640  110.6410 N.am   64  GLN64      -0.0878
     55  N         18.5980    1.5720  115.6690 N.am   65  ILE65      -0.1977
     56  CA        19.5610    1.1180  116.6720 C.3    65  ILE65       0.1596
     57  C         20.1840   -0.2260  116.2950 C.2    65  ILE65       0.2287
     58  O         21.3660   -0.4460  116.5310 O.2    65  ILE65      -0.2864
     59  CB        18.8990    1.0080  118.0760 C.3    65  ILE65       0.0276
     60  CG1       19.9630    0.9010  119.1590 C.3    65  ILE65       0.0022
     61  CG2       18.0030   -0.2070  118.1370 C.3    65  ILE65       0.0022
     62  CD1       20.8990    2.0980  119.2050 C.3    65  ILE65       0.0001
     63  N         16.7170    7.0600  104.8370 N.3    99  PHE99      -0.1241
     64  CA        16.2970    6.7190  106.1920 C.3    99  PHE99       0.1605
     65  C         17.5450    6.1870  106.8620 C.2    99  PHE99       0.2264
     66  O         17.9880    6.6780  107.8930 O.2    99  PHE99      -0.2867
     67  CB        15.2430    5.6080  106.1740 C.3    99  PHE99       0.0534
     68  CG        14.4220    5.5220  107.4330 C.ar   99  PHE99      -0.0203
     69  CD1       13.6170    6.5850  107.8130 C.ar   99  PHE99      -0.0042
     70  CD2       14.4390    4.3840  108.2300 C.ar   99  PHE99      -0.0042
     71  CE1       12.8410    6.5190  108.9530 C.ar   99  PHE99      -0.0003
     72  CE2       13.6570    4.3130  109.3820 C.ar   99  PHE99      -0.0003
     73  CZ        12.8610    5.3860  109.7390 C.ar   99  PHE99      -0.0000
     74  N         14.5080    7.7210  118.1220 N.3   117  PRO117     -0.2102
     75  CA        14.7140    6.3680  117.6180 C.3   117  PRO117      0.1504
     76  C         14.7630    6.3030  116.0820 C.2   117  PRO117      0.2575
     77  O         15.2620    5.3350  115.5140 O.2   117  PRO117     -0.2718
     78  CB        13.5280    5.6090  118.2180 C.3   117  PRO117      0.0282
     79  CG        12.4740    6.6180  118.2980 C.3   117  PRO117      0.0208
     80  CD        13.2200    7.8240  118.8250 C.3   117  PRO117      0.0893
     81  N         14.2660    7.3410  115.4140 N.am  118  LEU118     -0.1980
     82  CA        14.2570    7.3640  113.9560 C.3   118  LEU118      0.1596
     83  C         15.5480    7.8910  113.3450 C.2   118  LEU118      0.2287
     84  O         15.6640    8.0060  112.1250 O.2   118  LEU118     -0.2864
     85  CB        13.0740    8.1900  113.4420 C.3   118  LEU118      0.0297
     86  CG        11.6920    7.6170  113.7450 C.3   118  LEU118      0.0022
     87  CD1       10.6240    8.4790  113.0850 C.3   118  LEU118      0.0001
     88  CD2       11.6260    6.1800  113.2480 C.3   118  LEU118      0.0001
     89  N         23.7620    9.5980  114.5590 N.3   124  ARG124     -0.1245
     90  CA        24.1080    8.7080  115.6720 C.3   124  ARG124      0.1563
     91  C         25.6120    8.6040  115.7790 C.2   124  ARG124      0.2260
     92  O         26.1710    8.4580  116.8610 O.2   124  ARG124     -0.2867
     93  CB        23.5620    7.3000  115.4510 C.3   124  ARG124      0.0307
     94  CG        22.0790    7.1550  115.6390 C.3   124  ARG124      0.0489
     95  CD        21.6550    5.7650  115.2320 C.3   124  ARG124      0.2205
     96  NE        20.2080    5.6020  115.2770 N.pl3 124  ARG124     -0.0865
     97  CZ        19.5280    5.2880  116.3700 C.cat 124  ARG124      0.5346
     98  NH1       20.1740    5.0990  117.5130 N.pl3 124  ARG124      0.1354
     99  NH2       18.2050    5.1580  116.3170 N.pl3 124  ARG124      0.1354
@<TRIPOS>BOND
     1     4     3    2
     2     1     2    1
     3     3     2    1
     4     2     5    1
     5    15    14    2
     6    63    64    1
     7     5     6    1
     8    14    13    1
     9    12    13    1
    10    12    18    1
    11    13    16    1
    12    67    64    1
    13    67    68    1
    14    64    65    1
    15     6     7    1
    16     7     8    1
    17    65    66    2
    18    18    17    1
    19    23    20    1
    20    68    69   ar
    21    68    70   ar
    22    16    17    1
    23    19    20    1
    24    69    71   ar
    25    20    21    1
    26     8     9    2
    27    10     9    1
    28    70    72   ar
    29     9    11    1
    30    71    73   ar
    31    21    22    2
    32    21    24   am
    33    72    73   ar
    34    24    25    1
    35    54    52   am
    36    35    34    1
    37    53    52    2
    38    34    36    1
    39    34    31    1
    40    52    51    1
    41    33    32    2
    42    30    31    1
    43    30    26   am
    44    25    26    1
    45    25    28    1
    46    31    32    1
    47    84    83    2
    48    32    37   am
    49    26    27    2
    50    28    29    1
    51    51    50    1
    52    87    86    1
    53    88    86    1
    54    83    82    1
    55    47    46    1
    56    47    50    1
    57    47    48    1
    58    85    86    1
    59    85    82    1
    60    37    38    1
    61    40    39    2
    62    46    39   am
    63    45    44    1
    64    39    38    1
    65    38    41    1
    66    49    48    2
    67    82    81    1
    68    48    55   am
    69    43    44    1
    70    43    42    1
    71    89    90    1
    72    95    96    1
    73    95    94    1
    74    96    97    2
    75    41    42    1
    76    81    76   am
    77    93    94    1
    78    93    90    1
    79    77    76    2
    80    55    56    1
    81    90    91    1
    82    91    92    2
    83    76    75    1
    84    57    58    2
    85    57    56    1
    86    99    97    1
    87    97    98    1
    88    56    59    1
    89    75    74    1
    90    75    78    1
    91    59    61    1
    92    59    60    1
    93    74    80    1
    94    78    79    1
    95    79    80    1
    96    60    62    1
