@<TRIPOS>MOLECULE
tmp/2ieiB01.pdb
 116 116 0 0 0
SMALL
GASTEIGER

@<TRIPOS>ATOM
      1  N         72.0270   24.3460   15.0350 N.3    27  THR27      -0.1218
      2  CA        72.4060   23.0420   15.6050 C.3    27  THR27       0.1862
      3  C         72.4570   23.0500   17.1420 C.2    27  THR27       0.2287
      4  O         72.0740   22.0690   17.7870 O.2    27  THR27      -0.2866
      5  CB        73.7660   22.5430   15.0550 C.3    27  THR27       0.1770
      6  OG1       73.9150   22.9440   13.6890 O.3    27  THR27      -0.2211
      7  CG2       73.8590   21.0210   15.1480 C.3    27  THR27       0.0375
      8  N         81.2920   21.0490   14.5660 N.3    46  HIS46      -0.1241
      9  CA        80.3470   20.9200   13.4630 C.3    46  HIS46       0.1621
     10  C         80.8220   21.6190   12.1840 C.2    46  HIS46       0.2264
     11  O         80.7130   21.0590   11.1070 O.2    46  HIS46      -0.2867
     12  CB        78.9630   21.4200   13.8660 C.3    46  HIS46       0.0745
     13  CG        78.1900   20.4470   14.6990 C.ar   46  HIS46       0.0817
     14  ND1       78.4110   20.2870   16.0500 N.ar   46  HIS46      -0.2268
     15  CD2       77.2020   19.5790   14.3730 C.ar   46  HIS46       0.1154
     16  CE1       77.5870   19.3660   16.5230 C.ar   46  HIS46       0.1986
     17  NE2       76.8360   18.9290   15.5270 N.ar   46  HIS46      -0.2212
     18  N         83.6000   19.4540   10.8530 N.3    49  ARG49      -0.1245
     19  CA        82.9520   18.2130   10.4290 C.3    49  ARG49       0.1563
     20  C         82.3500   18.3230    9.0110 C.2    49  ARG49       0.2260
     21  O         82.4960   17.4040    8.2060 O.2    49  ARG49      -0.2867
     22  CB        81.8810   17.8070   11.4490 C.3    49  ARG49       0.0307
     23  CG        80.8770   16.8180   10.9500 C.3    49  ARG49       0.0489
     24  CD        79.4490   17.1750   11.3780 C.3    49  ARG49       0.2205
     25  NE        79.0520   16.5100   12.6080 N.pl3  49  ARG49      -0.0865
     26  CZ        77.7940   16.3010   12.9910 C.cat  49  ARG49       0.5346
     27  NH1       76.7720   16.6870   12.2390 N.pl3  49  ARG49       0.1354
     28  NH2       77.5620   15.6930   14.1400 N.pl3  49  ARG49       0.1354
     29  N         84.4270   17.4750    5.9640 N.3    52  LEU52      -0.1231
     30  CA        84.7260   16.0500    5.7600 C.3    52  LEU52       0.1693
     31  C         83.7330   15.2960    4.8740 C.2    52  LEU52       0.2591
     32  O         84.1220   14.3420    4.1920 O.2    52  LEU52      -0.2718
     33  CB        84.8300   15.3120    7.1040 C.3    52  LEU52       0.0284
     34  CG        86.0420   15.5030    8.0180 C.3    52  LEU52       0.0019
     35  CD1       85.7550   14.8970    9.3950 C.3    52  LEU52       0.0001
     36  CD2       87.2890   14.8740    7.4310 C.3    52  LEU52       0.0001
     37  N         82.4640   15.7050    4.8950 N.am   53  VAL53      -0.1980
     38  CA        81.3780   14.9150    4.2850 C.3    53  VAL53       0.1595
     39  C         81.4950   14.6860    2.7620 C.2    53  VAL53       0.2287
     40  O         81.2760   13.5700    2.2890 O.2    53  VAL53      -0.2864
     41  CB        79.9560   15.4530    4.6300 C.3    53  VAL53       0.0276
     42  CG1       79.7750   15.6490    6.1440 C.3    53  VAL53       0.0022
     43  CG2       79.6530   16.7320    3.8740 C.3    53  VAL53       0.0022
     44  N         84.1310   12.3120    2.1040 N.3    56  TRP56      -0.1241
     45  CA        83.7470   11.0330    2.7180 C.3    56  TRP56       0.1605
     46  C         82.8150   10.2240    1.8300 C.2    56  TRP56       0.2264
     47  O         83.0470    9.0300    1.6110 O.2    56  TRP56      -0.2867
     48  CB        83.1150   11.2580    4.1020 C.3    56  TRP56       0.0550
     49  CG        83.1770   10.0690    5.0370 C.ar   56  TRP56       0.0003
     50  CD1       83.9150    8.9190    4.8760 C.ar   56  TRP56       0.0946
     51  CD2       82.5130    9.9430    6.2990 C.ar   56  TRP56       0.0152
     52  NE1       83.7370    8.0880    5.9540 N.ar   56  TRP56      -0.2442
     53  CE2       82.8830    8.6890    6.8440 C.ar   56  TRP56       0.0810
     54  CE3       81.6380   10.7670    7.0240 C.ar   56  TRP56       0.0012
     55  CZ2       82.3960    8.2310    8.0800 C.ar   56  TRP56       0.0191
     56  CZ3       81.1550   10.3100    8.2670 C.ar   56  TRP56       0.0001
     57  CH2       81.5370    9.0540    8.7740 C.ar   56  TRP56       0.0015
     58  N         78.7820   12.8490   20.8190 N.3   174  ASN174     -0.1226
     59  CA        79.9720   12.7500   19.9700 C.3   174  ASN174      0.1770
     60  C         79.7030   13.2450   18.5470 C.2   174  ASN174      0.2439
     61  O         79.0780   12.5390   17.7430 O.2   174  ASN174     -0.2733
     62  CB        80.5280   11.3130   19.9710 C.3   174  ASN174      0.1168
     63  CG        81.8360   11.1580   19.1620 C.2   174  ASN174      0.2627
     64  OD1       82.4560   12.1350   18.7240 O.2   174  ASN174     -0.2716
     65  ND2       82.2590    9.9090   18.9800 N.am  174  ASN174     -0.0877
     66  N         80.2010   14.4540   18.2150 N.am  175  PRO175     -0.2718
     67  CA        79.9260   14.9890   16.8790 C.3   175  PRO175      0.1535
     68  C         80.6600   14.2220   15.7850 C.2   175  PRO175      0.2599
     69  O         80.2720   14.3060   14.6150 O.2   175  PRO175     -0.2715
     70  CB        80.4530   16.4310   16.9420 C.3   175  PRO175      0.0310
     71  CG        80.8320   16.6800   18.3630 C.3   175  PRO175      0.0237
     72  CD        81.0420   15.3570   19.0140 C.3   175  PRO175      0.0939
     73  N         81.7000   13.4830   16.1680 N.am  176  TRP176     -0.1960
     74  CA        82.6000   12.8460   15.2110 C.3   176  TRP176      0.1771
     75  C         82.2090   11.4170   14.8410 C.2   176  TRP176      0.2620
     76  O         82.9700   10.7300   14.1700 O.2   176  TRP176     -0.2715
     77  CB        84.0530   12.9000   15.7130 C.3   176  TRP176      0.0590
     78  CG        84.5120   14.2920   16.0300 C.ar  176  TRP176      0.0006
     79  CD1       84.6720   14.8460   17.2750 C.ar  176  TRP176      0.0946
     80  CD2       84.8420   15.3170   15.0880 C.ar  176  TRP176      0.0152
     81  NE1       85.0960   16.1450   17.1610 N.ar  176  TRP176     -0.2442
     82  CE2       85.2070   16.4600   15.8290 C.ar  176  TRP176      0.0810
     83  CE3       84.8870   15.3720   13.6860 C.ar  176  TRP176      0.0012
     84  CZ2       85.5970   17.6540   15.2170 C.ar  176  TRP176      0.0191
     85  CZ3       85.2770   16.5620   13.0770 C.ar  176  TRP176      0.0001
     86  CH2       85.6240   17.6870   13.8460 C.ar  176  TRP176      0.0015
     87  N         81.0280   10.9780   15.2690 N.am  177  GLU177     -0.1963
     88  CA        80.4940    9.6710   14.8700 C.3   177  GLU177      0.1733
     89  C         79.1690    9.8360   14.1390 C.2   177  GLU177      0.2616
     90  O         78.4020   10.7630   14.4240 O.2   177  GLU177     -0.2715
     91  CB        80.2760    8.7790   16.0970 C.3   177  GLU177      0.0429
     92  CG        79.2630    9.3510   17.1010 C.3   177  GLU177      0.1163
     93  CD        79.0240    8.4460   18.2900 C.2   177  GLU177      0.3649
     94  OE1       79.9370    7.6760   18.6430 O.co2 177  GLU177     -0.2457
     95  OE2       77.9200    8.5100   18.8720 O.co2 177  GLU177     -0.2457
     96  N         78.9020    8.9230   13.2120 N.am  178  LYS178     -0.1963
     97  CA        77.6360    8.8910   12.4780 C.3   178  LYS178      0.1728
     98  C         77.0080    7.5040   12.6220 C.2   178  LYS178      0.2616
     99  O         77.5210    6.5370   12.0710 O.2   178  LYS178     -0.2715
    100  CB        77.8680    9.2140   10.9980 C.3   178  LYS178      0.0311
    101  CG        76.6380    9.0340   10.0920 C.3   178  LYS178      0.0038
    102  CD        75.6710   10.1990   10.2060 C.3   178  LYS178      0.0206
    103  CE        74.4110    9.9610    9.3850 C.3   178  LYS178      0.1093
    104  NZ        73.3920    9.1670   10.1300 N.3   178  LYS178     -0.1314
    105  N         75.9160    7.4120   13.3810 N.am  179  ALA179     -0.1977
    106  CA        75.1660    6.1640   13.5120 C.3   179  ALA179      0.1597
    107  C         74.7210    5.7150   12.1230 C.2   179  ALA179      0.2287
    108  O         74.3890    6.5520   11.2800 O.2   179  ALA179     -0.2864
    109  CB        73.9750    6.3560   14.4160 C.3   179  ALA179      0.0319
    110  N         84.8440    9.2630   10.5730 N.3   216  PRO216     -0.2116
    111  CA        85.7190    9.5550    9.4310 C.3   216  PRO216      0.1372
    112  C         87.2000    9.5550    9.8020 C.2   216  PRO216      0.2244
    113  O         87.5860   10.0390   10.8780 O.2   216  PRO216     -0.2868
    114  CB        85.2570   10.9430    8.9700 C.3   216  PRO216      0.0268
    115  CG        84.6130   11.5540   10.1650 C.3   216  PRO216      0.0207
    116  CD        84.0490   10.4360   10.9820 C.3   216  PRO216      0.0892
@<TRIPOS>BOND
     1    47    46    2
     2    46    45    1
     3    44    45    1
     4    40    39    2
     5    45    48    1
     6    39    38    1
     7    43    41    1
     8    48    49    1
     9    32    31    2
    10    38    41    1
    11    38    37    1
    12    41    42    1
    13    31    37   am
    14    31    30    1
    15    50    49   ar
    16    50    52   ar
    17    49    51   ar
    18    30    29    1
    19    30    33    1
    20    52    53   ar
    21    51    53   ar
    22    51    54   ar
    23    53    55   ar
    24    54    56   ar
    25    33    34    1
    26    36    34    1
    27    34    35    1
    28    55    57   ar
    29    21    20    2
    30    56    57   ar
    31   114   111    1
    32   114   115    1
    33    20    19    1
    34   103   104    1
    35   103   102    1
    36   111   112    1
    37   111   110    1
    38   112   113    2
    39   101   102    1
    40   101   100    1
    41   115   116    1
    42    19    18    1
    43    19    22    1
    44   110   116    1
    45    23    24    1
    46    23    22    1
    47   100    97    1
    48    11    10    2
    49   108   107    2
    50    24    25    1
    51    99    98    2
    52   107   106    1
    53    10     9    1
    54    27    26    1
    55    97    98    1
    56    97    96    1
    57    25    26    2
    58    98   105   am
    59    26    28    1
    60    85    83   ar
    61    85    86   ar
    62    96    89   am
    63   105   106    1
    64     9    12    1
    65     9     8    1
    66   106   109    1
    67    83    80   ar
    68     6     5    1
    69    86    84   ar
    70    12    13    1
    71    89    90    2
    72    89    88    1
    73    76    75    2
    74    15    13   ar
    75    15    17   ar
    76    69    68    2
    77    13    14   ar
    78    75    74    1
    79    75    87   am
    80    88    87    1
    81    88    91    1
    82     1     2    1
    83     5     7    1
    84     5     2    1
    85    80    82   ar
    86    80    78   ar
    87    74    77    1
    88    74    73    1
    89    84    82   ar
    90    17    16   ar
    91     2     3    1
    92    77    78    1
    93    68    73   am
    94    68    67    1
    95    82    81   ar
    96    78    79   ar
    97    14    16   ar
    98    91    92    1
    99    67    70    1
   100    67    66    1
   101    70    71    1
   102    92    93    1
   103     3     4    2
   104    81    79   ar
   105    61    60    2
   106    66    60   am
   107    66    72    1
   108    93    94   ar
   109    93    95   ar
   110    71    72    1
   111    60    59    1
   112    64    63    2
   113    65    63   am
   114    63    62    1
   115    59    62    1
   116    59    58    1
