@<TRIPOS>MOLECULE
tmp/2ieiB02.pdb
 126 125 0 0 0
SMALL
GASTEIGER

@<TRIPOS>ATOM
      1  N         71.4210   27.1960   14.7700 N.3    26  PHE26      -0.1227
      2  CA        70.4830   26.1360   14.3930 C.3    26  PHE26       0.1736
      3  C         70.7660   24.7750   15.0470 C.2    26  PHE26       0.2596
      4  O         69.8480   24.1380   15.5710 O.2    26  PHE26      -0.2718
      5  CB        70.3870   26.0220   12.8640 C.3    26  PHE26       0.0547
      6  CG        69.7870   27.2430   12.1980 C.ar   26  PHE26      -0.0202
      7  CD1       68.4140   27.4610   12.2190 C.ar   26  PHE26      -0.0042
      8  CD2       70.5970   28.1660   11.5470 C.ar   26  PHE26      -0.0042
      9  CE1       67.8490   28.5900   11.5990 C.ar   26  PHE26      -0.0003
     10  CE2       70.0480   29.2900   10.9300 C.ar   26  PHE26      -0.0003
     11  CZ        68.6700   29.5000   10.9570 C.ar   26  PHE26      -0.0000
     12  N         72.0270   24.3460   15.0350 N.am   27  THR27      -0.1939
     13  CA        72.4060   23.0420   15.6050 C.3    27  THR27       0.2028
     14  C         72.4570   23.0500   17.1420 C.2    27  THR27       0.2642
     15  O         72.0740   22.0690   17.7870 O.2    27  THR27      -0.2714
     16  CB        73.7660   22.5430   15.0550 C.3    27  THR27       0.1808
     17  OG1       73.9150   22.9440   13.6890 O.3    27  THR27      -0.2208
     18  CG2       73.8590   21.0210   15.1480 C.3    27  THR27       0.0379
     19  N         72.9150   24.1620   17.7140 N.am   28  LEU28      -0.1963
     20  CA        73.1310   24.2720   19.1580 C.3    28  LEU28       0.1728
     21  C         72.0640   25.0710   19.9010 C.2    28  LEU28       0.2616
     22  O         71.9950   25.0050   21.1310 O.2    28  LEU28      -0.2715
     23  CB        74.5130   24.8620   19.4470 C.3    28  LEU28       0.0311
     24  CG        75.7310   24.0280   19.0240 C.3    28  LEU28       0.0022
     25  CD1       76.9680   24.8830   19.1120 C.3    28  LEU28       0.0001
     26  CD2       75.8950   22.7640   19.8770 C.3    28  LEU28       0.0001
     27  N         71.2560   25.8260   19.1540 N.am   29  VAL29      -0.1977
     28  CA        70.1450   26.6460   19.6920 C.3    29  VAL29       0.1596
     29  C         70.6200   27.6730   20.7390 C.2    29  VAL29       0.2287
     30  O         70.0610   27.7750   21.8340 O.2    29  VAL29      -0.2864
     31  CB        68.9640   25.7690   20.2440 C.3    29  VAL29       0.0276
     32  CG1       67.6600   26.5790   20.3260 C.3    29  VAL29       0.0022
     33  CG2       68.7490   24.5370   19.3860 C.3    29  VAL29       0.0022
     34  N         82.0130   25.4140   25.9090 N.3    38  ARG38      -0.1231
     35  CA        81.6110   24.0950   25.3830 C.3    38  ARG38       0.1694
     36  C         80.7240   24.2000   24.1470 C.2    38  ARG38       0.2592
     37  O         80.9130   23.4600   23.1910 O.2    38  ARG38      -0.2718
     38  CB        80.9360   23.2340   26.4630 C.3    38  ARG38       0.0321
     39  CG        80.3950   21.9020   25.9620 C.3    38  ARG38       0.0489
     40  CD        80.0320   20.9590   27.0960 C.3    38  ARG38       0.2205
     41  NE        81.2050   20.2310   27.5860 N.pl3  38  ARG38      -0.0865
     42  CZ        81.7760   20.4160   28.7750 C.cat  38  ARG38       0.5346
     43  NH1       81.2810   21.2970   29.6340 N.pl3  38  ARG38       0.1354
     44  NH2       82.8420   19.7050   29.1130 N.pl3  38  ARG38       0.1354
     45  N         79.7620   25.1180   24.1720 N.am   39  ASP39      -0.1974
     46  CA        78.9560   25.4300   22.9950 C.3    39  ASP39       0.1709
     47  C         79.8640   25.8380   21.8370 C.2    39  ASP39       0.2293
     48  O         79.6440   25.4350   20.6980 O.2    39  ASP39      -0.2864
     49  CB        77.9590   26.5580   23.2880 C.3    39  ASP39       0.1436
     50  CG        76.7710   26.1020   24.1350 C.2    39  ASP39       0.3671
     51  OD1       76.3290   24.9360   24.0130 O.co2  39  ASP39      -0.2456
     52  OD2       76.2680   26.9350   24.9220 O.co2  39  ASP39      -0.2456
     53  N         81.7260   22.8420   20.2360 N.3    42  PHE42      -0.1241
     54  CA        80.7730   22.1070   19.4000 C.3    42  PHE42       0.1605
     55  C         80.3780   22.8380   18.1220 C.2    42  PHE42       0.2264
     56  O         80.1170   22.1980   17.1030 O.2    42  PHE42      -0.2867
     57  CB        79.5390   21.7080   20.2020 C.3    42  PHE42       0.0534
     58  CG        79.7610   20.5170   21.1020 C.ar   42  PHE42      -0.0203
     59  CD1       79.9270   19.2410   20.5690 C.ar   42  PHE42      -0.0042
     60  CD2       79.7900   20.6680   22.4800 C.ar   42  PHE42      -0.0042
     61  CE1       80.1260   18.1400   21.4000 C.ar   42  PHE42      -0.0003
     62  CE2       79.9880   19.5670   23.3180 C.ar   42  PHE42      -0.0003
     63  CZ        80.1570   18.3070   22.7790 C.ar   42  PHE42      -0.0000
     64  N         81.2920   21.0490   14.5660 N.3    46  HIS46      -0.1241
     65  CA        80.3470   20.9200   13.4630 C.3    46  HIS46       0.1621
     66  C         80.8220   21.6190   12.1840 C.2    46  HIS46       0.2264
     67  O         80.7130   21.0590   11.1070 O.2    46  HIS46      -0.2867
     68  CB        78.9630   21.4200   13.8660 C.3    46  HIS46       0.0745
     69  CG        78.1900   20.4470   14.6990 C.ar   46  HIS46       0.0817
     70  ND1       78.4110   20.2870   16.0500 N.ar   46  HIS46      -0.2268
     71  CD2       77.2020   19.5790   14.3730 C.ar   46  HIS46       0.1154
     72  CE1       77.5870   19.3660   16.5230 C.ar   46  HIS46       0.1986
     73  NE2       76.8360   18.9290   15.5270 N.ar   46  HIS46      -0.2212
     74  N         83.6000   19.4540   10.8530 N.3    49  ARG49      -0.1245
     75  CA        82.9520   18.2130   10.4290 C.3    49  ARG49       0.1563
     76  C         82.3500   18.3230    9.0110 C.2    49  ARG49       0.2260
     77  O         82.4960   17.4040    8.2060 O.2    49  ARG49      -0.2867
     78  CB        81.8810   17.8070   11.4490 C.3    49  ARG49       0.0307
     79  CG        80.8770   16.8180   10.9500 C.3    49  ARG49       0.0489
     80  CD        79.4490   17.1750   11.3780 C.3    49  ARG49       0.2205
     81  NE        79.0520   16.5100   12.6080 N.pl3  49  ARG49      -0.0865
     82  CZ        77.7940   16.3010   12.9910 C.cat  49  ARG49       0.5346
     83  NH1       76.7720   16.6870   12.2390 N.pl3  49  ARG49       0.1354
     84  NH2       77.5620   15.6930   14.1400 N.pl3  49  ARG49       0.1354
     85  N         79.2090   11.6860   27.3140 N.3   171  ARG171     -0.1231
     86  CA        78.3340   12.5090   28.1670 C.3   171  ARG171      0.1694
     87  C         77.6210   13.6810   27.4650 C.2   171  ARG171      0.2592
     88  O         76.4040   13.8550   27.6320 O.2   171  ARG171     -0.2718
     89  CB        79.0990   12.9750   29.4200 C.3   171  ARG171      0.0321
     90  CG        78.5610   14.2440   30.0920 C.3   171  ARG171      0.0489
     91  CD        79.0050   14.4110   31.5450 C.3   171  ARG171      0.2205
     92  NE        80.3960   14.0310   31.7980 N.pl3 171  ARG171     -0.0865
     93  CZ        80.7740   13.1240   32.6980 C.cat 171  ARG171      0.5346
     94  NH1       79.8700   12.4940   33.4430 N.pl3 171  ARG171      0.1354
     95  NH2       82.0620   12.8470   32.8610 N.pl3 171  ARG171      0.1354
     96  N         78.3650   14.4670   26.6850 N.am  172  TYR172     -0.1962
     97  CA        77.7930   15.6150   25.9670 C.3   172  TYR172      0.1771
     98  C         77.6100   15.3700   24.4630 C.2   172  TYR172      0.2620
     99  O         77.4430   16.3300   23.7010 O.2   172  TYR172     -0.2715
    100  CB        78.6500   16.8750   26.1500 C.3   172  TYR172      0.0574
    101  CG        78.9650   17.2480   27.5770 C.ar  172  TYR172     -0.0198
    102  CD1       78.0860   18.0350   28.3300 C.ar  172  TYR172     -0.0009
    103  CD2       80.1560   16.8380   28.1690 C.ar  172  TYR172     -0.0009
    104  CE1       78.3860   18.3860   29.6500 C.ar  172  TYR172      0.0417
    105  CE2       80.4640   17.1810   29.4830 C.ar  172  TYR172      0.0417
    106  CZ        79.5780   17.9560   30.2150 C.ar  172  TYR172      0.1957
    107  OH        79.8970   18.2890   31.5110 O.3   172  TYR172     -0.2866
    108  N         77.6430   14.1050   24.0430 N.am  173  GLY173     -0.1940
    109  CA        77.4220   13.7370   22.6360 C.3   173  GLY173      0.2014
    110  C         78.7050   13.7300   21.8200 C.2   173  GLY173      0.2639
    111  O         79.6140   14.5150   22.0910 O.2   173  GLY173     -0.2714
    112  N         78.7820   12.8490   20.8190 N.am  174  ASN174     -0.1958
    113  CA        79.9720   12.7500   19.9700 C.3   174  ASN174      0.1804
    114  C         79.7030   13.2450   18.5470 C.2   174  ASN174      0.2463
    115  O         79.0780   12.5390   17.7430 O.2   174  ASN174     -0.2730
    116  CB        80.5280   11.3130   19.9710 C.3   174  ASN174      0.1195
    117  CG        81.8360   11.1580   19.1620 C.2   174  ASN174      0.2630
    118  OD1       82.4560   12.1350   18.7240 O.2   174  ASN174     -0.2716
    119  ND2       82.2590    9.9090   18.9800 N.am  174  ASN174     -0.0877
    120  N         80.2010   14.4540   18.2150 N.am  175  PRO175     -0.2727
    121  CA        79.9260   14.9890   16.8790 C.3   175  PRO175      0.1402
    122  C         80.6600   14.2220   15.7850 C.2   175  PRO175      0.2269
    123  O         80.2720   14.3060   14.6150 O.2   175  PRO175     -0.2865
    124  CB        80.4530   16.4310   16.9420 C.3   175  PRO175      0.0296
    125  CG        80.8320   16.6800   18.3630 C.3   175  PRO175      0.0237
    126  CD        81.0420   15.3570   19.0140 C.3   175  PRO175      0.0939
@<TRIPOS>BOND
     1    77    76    2
     2    76    75    1
     3    75    74    1
     4    75    78    1
     5    10    11   ar
     6    10     8   ar
     7    79    80    1
     8    79    78    1
     9    11     9   ar
    10    67    66    2
    11    80    81    1
    12     8     6   ar
    13     9     7   ar
    14    66    65    1
    15     6     7   ar
    16     6     5    1
    17    83    82    1
    18    81    82    2
    19     5     2    1
    20    82    84    1
    21    65    68    1
    22    65    64    1
    23    17    16    1
    24    68    69    1
    25    71    69   ar
    26    71    73   ar
    27     2     1    1
    28     2     3    1
    29   123   122    2
    30    69    70   ar
    31    12     3   am
    32    12    13    1
    33     3     4    2
    34    16    18    1
    35    16    13    1
    36    73    72   ar
    37    13    14    1
    38   122   121    1
    39    70    72   ar
    40   121   124    1
    41   121   120    1
    42   124   125    1
    43    56    55    2
    44    14    19   am
    45    14    15    2
    46    19    20    1
    47   115   114    2
    48    55    54    1
    49   120   114   am
    50   120   126    1
    51   125   126    1
    52   114   113    1
    53   118   117    2
    54   119   117   am
    55    24    25    1
    56    24    23    1
    57    24    26    1
    58    27    28    1
    59    27    21   am
    60    20    23    1
    61    20    21    1
    62   117   116    1
    63    33    31    1
    64    54    57    1
    65    54    53    1
    66    28    31    1
    67    28    29    1
    68    21    22    2
    69   113   116    1
    70   113   112    1
    71    57    58    1
    72    31    32    1
    73    59    58   ar
    74    59    61   ar
    75    48    47    2
    76    29    30    2
    77   112   110   am
    78    58    60   ar
    79    61    63   ar
    80   110   111    2
    81   110   109    1
    82    47    46    1
    83    60    62   ar
    84   109   108    1
    85    63    62   ar
    86    46    49    1
    87    46    45    1
    88    37    36    2
    89    49    50    1
    90    99    98    2
    91    51    50   ar
    92   108    98   am
    93    50    52   ar
    94    36    45   am
    95    36    35    1
    96    98    97    1
    97    35    34    1
    98    35    38    1
    99    39    38    1
   100    39    40    1
   101    97   100    1
   102    97    96    1
   103   100   101    1
   104    96    87   am
   105    40    41    1
   106    85    86    1
   107    87    88    2
   108    87    86    1
   109   101   103   ar
   110   101   102   ar
   111    41    42    2
   112    86    89    1
   113   103   105   ar
   114   102   104   ar
   115    42    44    1
   116    42    43    1
   117    89    90    1
   118   105   106   ar
   119   104   106   ar
   120    90    91    1
   121   106   107    1
   122    91    92    1
   123    92    93    2
   124    93    95    1
   125    93    94    1
