@<TRIPOS>MOLECULE
tmp/2iejB01.pdb
 180 180 0 0 0
SMALL
GASTEIGER

@<TRIPOS>ATOM
      1  N         11.3770  148.0650   -0.1550 N.3    79  TYR79      -0.1241
      2  CA        11.1500  146.8350   -0.8970 C.3    79  TYR79       0.1605
      3  C         11.4780  146.9780   -2.3730 C.2    79  TYR79       0.2264
      4  O         11.1680  146.0710   -3.1480 O.2    79  TYR79      -0.2867
      5  CB         9.7130  146.3550   -0.7320 C.3    79  TYR79       0.0534
      6  CG         9.4200  145.7910    0.6370 C.ar   79  TYR79      -0.0201
      7  CD1        9.1330  146.6400    1.7200 C.ar   79  TYR79      -0.0009
      8  CD2        9.4410  144.4090    0.8590 C.ar   79  TYR79      -0.0009
      9  CE1        8.8650  146.1250    2.9760 C.ar   79  TYR79       0.0417
     10  CE2        9.1750  143.8840    2.1160 C.ar   79  TYR79       0.0417
     11  CZ         8.8940  144.7380    3.1670 C.ar   79  TYR79       0.1957
     12  OH         8.6290  144.2110    4.4160 O.3    79  TYR79      -0.2866
     13  N         14.1970  146.6150   -3.8980 N.3    81  CYS81      -0.1221
     14  CA        15.0700  145.4800   -4.2720 C.3    81  CYS81       0.1808
     15  C         14.3060  144.1980   -4.6390 C.2    81  CYS81       0.2601
     16  O         14.8880  143.2630   -5.2050 O.2    81  CYS81      -0.2717
     17  CB        16.0830  145.1820   -3.1650 C.3    81  CYS81       0.0970
     18  SG        15.3490  144.7030   -1.5840 S.3    81  CYS81      -0.0800
     19  N         13.0140  144.1680   -4.3310 N.am   82  LEU82      -0.1979
     20  CA        12.1560  143.0130   -4.6420 C.3    82  LEU82       0.1596
     21  C         11.1600  143.3330   -5.7540 C.2    82  LEU82       0.2287
     22  O         10.2260  142.5910   -6.0020 O.2    82  LEU82      -0.2864
     23  CB        11.4530  142.5330   -3.3670 C.3    82  LEU82       0.0297
     24  CG        12.4790  141.8800   -2.4140 C.3    82  LEU82       0.0022
     25  CD1       11.9420  141.8650   -1.0180 C.3    82  LEU82       0.0001
     26  CD2       12.8910  140.4640   -2.8380 C.3    82  LEU82       0.0001
     27  N         10.5230  140.6010   -8.0080 N.3    85  SER85      -0.1217
     28  CA        10.1810  139.3840   -7.2600 C.3    85  SER85       0.1889
     29  C          8.7860  139.4810   -6.6440 C.2    85  SER85       0.2288
     30  O          8.5230  138.8910   -5.5930 O.2    85  SER85      -0.2866
     31  CB        11.1930  139.1310   -6.1360 C.3    85  SER85       0.2089
     32  OG        12.4390  138.7070   -6.6600 O.3    85  SER85      -0.2183
     33  N          6.8300  136.3060   -5.7390 N.3    88  TRP88      -0.1227
     34  CA         7.4220  135.6910   -4.5440 C.3    88  TRP88       0.1737
     35  C          6.8260  136.2540   -3.2730 C.2    88  TRP88       0.2595
     36  O          6.5580  135.5110   -2.3250 O.2    88  TRP88      -0.2718
     37  CB         8.9330  135.8830   -4.4840 C.3    88  TRP88       0.0564
     38  CG         9.6910  134.9340   -5.3400 C.ar   88  TRP88       0.0003
     39  CD1       10.4450  135.2370   -6.4420 C.ar   88  TRP88       0.0946
     40  CD2        9.8060  133.5090   -5.1450 C.ar   88  TRP88       0.0152
     41  NE1       11.0030  134.0700   -6.9700 N.ar   88  TRP88      -0.2442
     42  CE2       10.6260  133.0050   -6.1850 C.ar   88  TRP88       0.0810
     43  CE3        9.2720  132.6130   -4.1980 C.ar   88  TRP88       0.0012
     44  CZ2       10.9340  131.6300   -6.3080 C.ar   88  TRP88       0.0191
     45  CZ3        9.5880  131.2430   -4.3160 C.ar   88  TRP88       0.0001
     46  CH2       10.4210  130.7810   -5.3590 C.ar   88  TRP88       0.0015
     47  N          6.6420  137.5680   -3.2390 N.am   89  LEU89      -0.1980
     48  CA         6.0120  138.2010   -2.0750 C.3    89  LEU89       0.1596
     49  C          4.6120  137.6070   -1.8750 C.2    89  LEU89       0.2287
     50  O          4.2440  137.2530   -0.7370 O.2    89  LEU89      -0.2864
     51  CB         5.9660  139.7200   -2.2410 C.3    89  LEU89       0.0297
     52  CG         7.3390  140.4270   -2.1360 C.3    89  LEU89       0.0022
     53  CD1        7.1760  141.9000   -2.5720 C.3    89  LEU89       0.0001
     54  CD2        7.9300  140.3380   -0.7270 C.3    89  LEU89       0.0001
     55  N          5.1550  133.8110   -0.6660 N.3    92  TRP92      -0.1241
     56  CA         5.7110  133.7170    0.6990 C.3    92  TRP92       0.1605
     57  C          4.6420  134.0800    1.7220 C.2    92  TRP92       0.2264
     58  O          4.5000  133.4200    2.7770 O.2    92  TRP92      -0.2867
     59  CB         6.9260  134.6430    0.8840 C.3    92  TRP92       0.0550
     60  CG         8.1520  134.2440    0.0890 C.ar   92  TRP92       0.0003
     61  CD1        8.5460  132.9710   -0.2490 C.ar   92  TRP92       0.0946
     62  CD2        9.1440  135.1250   -0.4380 C.ar   92  TRP92       0.0152
     63  NE1        9.7260  133.0160   -0.9610 N.ar   92  TRP92      -0.2442
     64  CE2       10.1090  134.3240   -1.1020 C.ar   92  TRP92       0.0810
     65  CE3        9.3070  136.5220   -0.4270 C.ar   92  TRP92       0.0012
     66  CZ2       11.2370  134.8760   -1.7510 C.ar   92  TRP92       0.0191
     67  CZ3       10.4240  137.0710   -1.0740 C.ar   92  TRP92       0.0001
     68  CH2       11.3780  136.2450   -1.7220 C.ar   92  TRP92       0.0015
     69  N         17.8650  125.1450   -9.8580 N.3   188  ARG188     -0.1245
     70  CA        16.5880  125.7890   -9.5050 C.3   188  ARG188      0.1563
     71  C         15.6020  125.6950  -10.6720 C.2   188  ARG188      0.2260
     72  O         14.4120  125.4870  -10.4600 O.2   188  ARG188     -0.2867
     73  CB        16.7890  127.2670   -9.1310 C.3   188  ARG188      0.0307
     74  CG        17.5060  127.5240   -7.7870 C.3   188  ARG188      0.0489
     75  CD        17.7610  129.0450   -7.6400 C.3   188  ARG188      0.2205
     76  NE        18.4600  129.5800   -8.8170 N.pl3 188  ARG188     -0.0865
     77  CZ        18.3610  130.8320   -9.2860 C.cat 188  ARG188      0.5346
     78  NH1       17.5900  131.7340   -8.6860 N.pl3 188  ARG188      0.1354
     79  NH2       19.0330  131.1790  -10.3690 N.pl3 188  ARG188      0.1354
     80  N         20.7600  128.7170    9.7820 N.3   283  ASP283     -0.1239
     81  CA        19.8420  129.7080    9.2240 C.3   283  ASP283      0.1674
     82  C         18.4610  129.0660    9.2100 C.2   283  ASP283      0.2266
     83  O         18.2710  127.9830    8.6780 O.2   283  ASP283     -0.2867
     84  CB        20.3200  130.1500    7.8130 C.3   283  ASP283      0.1410
     85  CG        19.3470  131.0840    7.1030 C.2   283  ASP283      0.3668
     86  OD1       19.7600  131.6670    6.0930 O.co2 283  ASP283     -0.2456
     87  OD2       18.1720  131.1900    7.4860 O.co2 283  ASP283     -0.2456
     88  N         15.8860  129.5310    7.3650 N.3   285  CYS285     -0.1221
     89  CA        15.2480  129.1170    6.1110 C.3   285  CYS285      0.1808
     90  C         15.6240  127.6810    5.7110 C.2   285  CYS285      0.2601
     91  O         14.8360  127.0050    5.0120 O.2   285  CYS285     -0.2717
     92  CB        15.4770  130.1280    4.9750 C.3   285  CYS285      0.0970
     93  SG        17.1850  130.1650    4.4120 S.3   285  CYS285     -0.0800
     94  N         16.7880  127.2010    6.1690 N.am  286  TYR286     -0.1976
     95  CA        17.1720  125.7920    5.9110 C.3   286  TYR286      0.1639
     96  C         16.3290  124.7810    6.6730 C.2   286  TYR286      0.2290
     97  O         16.4240  123.5860    6.4080 O.2   286  TYR286     -0.2864
     98  CB        18.6820  125.5410    6.1160 C.3   286  TYR286      0.0560
     99  CG        19.5010  126.4210    5.2150 C.ar  286  TYR286     -0.0198
    100  CD1       20.4580  127.2860    5.7390 C.ar  286  TYR286     -0.0009
    101  CD2       19.2750  126.4340    3.8350 C.ar  286  TYR286     -0.0009
    102  CE1       21.1990  128.1310    4.9020 C.ar  286  TYR286      0.0417
    103  CE2       20.0030  127.2860    2.9970 C.ar  286  TYR286      0.0417
    104  CZ        20.9380  128.1300    3.5480 C.ar  286  TYR286      0.1957
    105  OH        21.6550  128.9510    2.7360 O.3   286  TYR286     -0.2866
    106  N         14.6200  123.9920    3.3660 N.3   289  TRP289     -0.1241
    107  CA        15.3890  123.4410    2.2340 C.3   289  TRP289      0.1605
    108  C         16.1280  122.1700    2.6280 C.2   289  TRP289      0.2264
    109  O         16.1820  121.2370    1.8350 O.2   289  TRP289     -0.2867
    110  CB        16.3920  124.4500    1.6750 C.3   289  TRP289      0.0550
    111  CG        15.7690  125.7520    1.2890 C.ar  289  TRP289      0.0003
    112  CD1       15.9910  126.9720    1.8580 C.ar  289  TRP289      0.0946
    113  CD2       14.8170  125.9570    0.2370 C.ar  289  TRP289      0.0152
    114  NE1       15.2330  127.9330    1.2160 N.ar  289  TRP289     -0.2442
    115  CE2       14.4950  127.3300    0.2280 C.ar  289  TRP289      0.0810
    116  CE3       14.1930  125.1030   -0.6940 C.ar  289  TRP289      0.0012
    117  CZ2       13.5840  127.8860   -0.6890 C.ar  289  TRP289      0.0191
    118  CZ3       13.2770  125.6590   -1.6230 C.ar  289  TRP289      0.0001
    119  CH2       12.9930  127.0450   -1.6060 C.ar  289  TRP289      0.0015
    120  N         16.3290  134.5280   10.0190 N.3   338  ASP338     -0.1239
    121  CA        17.4990  133.6600    9.7870 C.3   338  ASP338      0.1674
    122  C         18.1030  133.1630   11.1210 C.2   338  ASP338      0.2266
    123  O         18.1330  131.9620   11.3870 O.2   338  ASP338     -0.2867
    124  CB        18.4680  134.4810    8.9070 C.3   338  ASP338      0.1410
    125  CG        19.9080  133.9890    8.9010 C.2   338  ASP338      0.3668
    126  OD1       20.3080  133.0420    9.5980 O.co2 338  ASP338     -0.2456
    127  OD2       20.6540  134.6200    8.1400 O.co2 338  ASP338     -0.2456
    128  N         11.8080  138.9990    7.6780 N.3   345  ASP345     -0.1225
    129  CA        11.4180  139.2300    6.2850 C.3   345  ASP345      0.1805
    130  C         10.4220  138.1480    5.8810 C.2   345  ASP345      0.2598
    131  O         10.3330  137.1210    6.5680 O.2   345  ASP345     -0.2718
    132  CB        12.6500  139.2860    5.3830 C.3   345  ASP345      0.1424
    133  CG        13.3900  137.9620    5.3000 C.2   345  ASP345      0.3668
    134  OD1       12.7880  136.9820    4.8020 O.co2 345  ASP345     -0.2456
    135  OD2       14.5670  137.9180    5.7210 O.co2 345  ASP345     -0.2456
    136  N          9.6710  138.3670    4.8000 N.am  346  PHE346     -0.1962
    137  CA         8.6190  137.4180    4.4010 C.3   346  PHE346      0.1771
    138  C          9.1650  136.0800    3.9270 C.2   346  PHE346      0.2620
    139  O          8.4960  135.0700    4.0640 O.2   346  PHE346     -0.2715
    140  CB         7.7350  138.0190    3.3080 C.3   346  PHE346      0.0574
    141  CG         7.0350  139.2640    3.7470 C.ar  346  PHE346     -0.0200
    142  CD1        7.3010  140.4830    3.1270 C.ar  346  PHE346     -0.0042
    143  CD2        6.1700  139.2300    4.8450 C.ar  346  PHE346     -0.0042
    144  CE1        6.6490  141.6590    3.5590 C.ar  346  PHE346     -0.0003
    145  CE2        5.5100  140.4050    5.2840 C.ar  346  PHE346     -0.0003
    146  CZ         5.7570  141.5980    4.6470 C.ar  346  PHE346     -0.0000
    147  N         10.3710  136.0850    3.3680 N.am  347  TYR347     -0.1960
    148  CA        10.9870  134.8420    2.9150 C.3   347  TYR347      0.1771
    149  C         11.3080  133.9280    4.1230 C.2   347  TYR347      0.2619
    150  O         10.9530  132.7480    4.1420 O.2   347  TYR347     -0.2715
    151  CB        12.2350  135.1400    2.0540 C.3   347  TYR347      0.0574
    152  CG        13.2220  133.9820    1.9360 C.ar  347  TYR347     -0.0198
    153  CD1       13.1300  133.0740    0.8830 C.ar  347  TYR347     -0.0009
    154  CD2       14.2630  133.8260    2.8520 C.ar  347  TYR347     -0.0009
    155  CE1       14.0210  132.0130    0.7590 C.ar  347  TYR347      0.0417
    156  CE2       15.1680  132.7560    2.7560 C.ar  347  TYR347      0.0417
    157  CZ        15.0360  131.8570    1.6940 C.ar  347  TYR347      0.1957
    158  OH        15.9050  130.8110    1.5560 O.3   347  TYR347     -0.2866
    159  N         11.9740  134.4630    5.1360 N.am  348  HIS348     -0.1973
    160  CA        12.2890  133.6270    6.3010 C.3   348  HIS348      0.1656
    161  C         11.0210  133.2680    7.0680 C.2   348  HIS348      0.2291
    162  O         10.9410  132.2140    7.7110 O.2   348  HIS348     -0.2864
    163  CB        13.3390  134.2930    7.1930 C.3   348  HIS348      0.0771
    164  CG        14.7270  134.1960    6.6470 C.ar  348  HIS348      0.0820
    165  ND1       15.3270  135.2240    5.9470 N.ar  348  HIS348     -0.2267
    166  CD2       15.6060  133.1670    6.6350 C.ar  348  HIS348      0.1154
    167  CE1       16.5320  134.8380    5.5510 C.ar  348  HIS348      0.1986
    168  NE2       16.7150  133.5870    5.9360 N.ar  348  HIS348     -0.2212
    169  N          9.7180  130.1850    5.0730 N.3   351  TYR351     -0.1241
    170  CA        10.4610  128.9150    5.1720 C.3   351  TYR351      0.1605
    171  C         10.6700  128.4070    6.6110 C.2   351  TYR351      0.2264
    172  O         10.7390  127.1870    6.8290 O.2   351  TYR351     -0.2867
    173  CB        11.7660  128.9680    4.3460 C.3   351  TYR351      0.0534
    174  CG        11.3780  129.0320    2.8710 C.ar  351  TYR351     -0.0201
    175  CD1       11.4270  130.2350    2.1710 C.ar  351  TYR351     -0.0009
    176  CD2       10.8590  127.9080    2.2230 C.ar  351  TYR351     -0.0009
    177  CE1       11.0130  130.3000    0.8360 C.ar  351  TYR351      0.0417
    178  CE2       10.4530  127.9750    0.8620 C.ar  351  TYR351      0.0417
    179  CZ        10.5330  129.1800    0.2040 C.ar  351  TYR351      0.1957
    180  OH        10.1480  129.2610   -1.1300 O.3   351  TYR351     -0.2866
@<TRIPOS>BOND
     1    71    72    2
     2    71    70    1
     3    79    77    1
     4    69    70    1
     5    70    73    1
     6    77    76    2
     7    77    78    1
     8    73    74    1
     9    76    75    1
    10    27    28    1
    11    74    75    1
    12    28    29    1
    13    28    31    1
    14    41    39   ar
    15    41    42   ar
    16    32    31    1
    17    29    30    2
    18    39    38   ar
    19    44    42   ar
    20    44    46   ar
    21    42    40   ar
    22    22    21    2
    23    21    20    1
    24    33    34    1
    25    46    45   ar
    26    38    40   ar
    27    38    37    1
    28    16    15    2
    29    40    43   ar
    30    20    19    1
    31    20    23    1
    32    15    19   am
    33    15    14    1
    34    34    37    1
    35    34    35    1
    36    45    43   ar
    37    14    13    1
    38    14    17    1
    39    23    24    1
    40    35    47   am
    41    35    36    2
    42    47    48    1
    43    17    18    1
    44     4     3    2
    45    26    24    1
    46    53    52    1
    47    24    25    1
    48     3     2    1
    49    51    52    1
    50    51    48    1
    51    52    54    1
    52    48    49    1
    53    49    50    2
    54    66    68   ar
    55    66    64   ar
    56    68    67   ar
    57   118   119   ar
    58   118   116   ar
    59   119   117   ar
    60   180   179    1
    61    64    63   ar
    62    64    62   ar
    63    67    65   ar
    64    63    61   ar
    65     2     5    1
    66     2     1    1
    67     5     6    1
    68   116   113   ar
    69   117   115   ar
    70    55    56    1
    71    62    65   ar
    72    62    60   ar
    73    61    60   ar
    74    60    59    1
    75   179   177   ar
    76   179   178   ar
    77   115   113   ar
    78   115   114   ar
    79   113   111   ar
    80     6     8   ar
    81     6     7   ar
    82    56    59    1
    83    56    57    1
    84   155   153   ar
    85   155   157   ar
    86   177   175   ar
    87     8    10   ar
    88   178   176   ar
    89   153   152   ar
    90   114   112   ar
    91   111   110    1
    92   111   112   ar
    93   158   157    1
    94   110   107    1
    95   157   156   ar
    96     7     9   ar
    97    57    58    2
    98   109   108    2
    99   152   151    1
   100   152   154   ar
   101   151   148    1
   102    10    11   ar
   103   175   174   ar
   104   176   174   ar
   105   107   108    1
   106   107   106    1
   107   105   104    1
   108   156   154   ar
   109   174   173    1
   110   148   147    1
   111   148   149    1
   112     9    11   ar
   113   103   104   ar
   114   103   101   ar
   115   142   144   ar
   116   142   141   ar
   117    11    12    1
   118   140   141    1
   119   140   137    1
   120   147   138   am
   121   104   102   ar
   122   144   146   ar
   123   141   143   ar
   124   101    99   ar
   125   138   139    2
   126   138   137    1
   127   149   150    2
   128   149   159   am
   129   173   170    1
   130   137   136    1
   131    93    92    1
   132   146   145   ar
   133   136   130   am
   134   134   133   ar
   135   143   145   ar
   136   102   100   ar
   137    92    89    1
   138    91    90    2
   139   169   170    1
   140   159   160    1
   141   170   171    1
   142    99   100   ar
   143    99    98    1
   144   133   132    1
   145   133   135   ar
   146   132   129    1
   147   167   168   ar
   148   167   165   ar
   149    90    89    1
   150    90    94   am
   151   130   129    1
   152   130   131    2
   153    95    98    1
   154    95    94    1
   155    95    96    1
   156   168   166   ar
   157   165   164   ar
   158    86    85   ar
   159    89    88    1
   160   129   128    1
   161   160   161    1
   162   160   163    1
   163    97    96    2
   164   171   172    2
   165   166   164   ar
   166   164   163    1
   167   161   162    2
   168    85    87   ar
   169    85    84    1
   170    84    81    1
   171   127   125   ar
   172    83    82    2
   173   125   124    1
   174   125   126   ar
   175   124   121    1
   176    82    81    1
   177    81    80    1
   178   121   120    1
   179   121   122    1
   180   122   123    2
