@<TRIPOS>MOLECULE
tmp/2iekA00.pdb
 168 164 0 0 0
SMALL
GASTEIGER

@<TRIPOS>ATOM
      1  N          7.0300   -5.3440   -5.9930 N.3    57  THR57      -0.1218
      2  CA         6.0950   -4.2370   -6.1930 C.3    57  THR57       0.1862
      3  C          5.9800   -3.3660   -4.9440 C.2    57  THR57       0.2287
      4  O          5.9590   -2.1440   -5.0520 O.2    57  THR57      -0.2866
      5  CB         4.6680   -4.6430   -6.6520 C.3    57  THR57       0.1770
      6  OG1        3.9480   -5.2560   -5.5830 O.3    57  THR57      -0.2211
      7  CG2        4.6910   -5.5560   -7.8970 C.3    57  THR57       0.0375
      8  N          8.7570   -0.9060   -4.7540 N.3    60  LEU60      -0.1231
      9  CA         8.5680    0.2260   -5.6710 C.3    60  LEU60       0.1693
     10  C          7.5270    1.1640   -5.0920 C.2    60  LEU60       0.2591
     11  O          7.6530    2.3730   -5.2260 O.2    60  LEU60      -0.2718
     12  CB         8.1190   -0.2740   -7.0380 C.3    60  LEU60       0.0284
     13  CG         9.0230   -1.2800   -7.7510 C.3    60  LEU60       0.0019
     14  CD1        8.5130   -1.6540   -9.1800 C.3    60  LEU60       0.0001
     15  CD2       10.3990   -0.6620   -7.8320 C.3    60  LEU60       0.0001
     16  N          6.5090    0.6100   -4.4230 N.am   61  GLN61      -0.1979
     17  CA         5.5070    1.4650   -3.7420 C.3    61  GLN61       0.1601
     18  C          6.1530    2.3030   -2.6980 C.2    61  GLN61       0.2287
     19  O          5.7920    3.4950   -2.5460 O.2    61  GLN61      -0.2864
     20  CB         4.4090    0.6310   -3.0640 C.3    61  GLN61       0.0394
     21  CG         3.5420   -0.1140   -4.0230 C.3    61  GLN61       0.0908
     22  CD         2.5750   -1.0170   -3.2410 C.2    61  GLN61       0.2608
     23  OE1        1.5750   -0.5430   -2.7120 O.2    61  GLN61      -0.2717
     24  NE2        2.9120   -2.3010   -3.1090 N.am   61  GLN61      -0.0878
     25  N          8.1250    5.1380   -4.1110 N.3    64  PHE64      -0.1241
     26  CA         7.2380    6.2580   -4.4510 C.3    64  PHE64       0.1605
     27  C          6.7300    7.0370   -3.2770 C.2    64  PHE64       0.2264
     28  O          6.6700    8.2550   -3.3580 O.2    64  PHE64      -0.2867
     29  CB         6.0770    5.9060   -5.3880 C.3    64  PHE64       0.0534
     30  CG         5.2230    7.0950   -5.7290 C.ar   64  PHE64      -0.0203
     31  CD1        5.7080    8.1100   -6.5410 C.ar   64  PHE64      -0.0042
     32  CD2        3.9550    7.2690   -5.1570 C.ar   64  PHE64      -0.0042
     33  CE1        4.9640    9.2800   -6.8060 C.ar   64  PHE64      -0.0003
     34  CE2        3.2000    8.4300   -5.4630 C.ar   64  PHE64      -0.0003
     35  CZ         3.6710    9.3980   -6.3040 C.ar   64  PHE64      -0.0000
     36  N          9.9570   12.4320  -10.6710 N.3    81  TRP81      -0.1227
     37  CA         9.6000   11.0530  -10.4320 C.3    81  TRP81       0.1737
     38  C         10.0780   10.1220  -11.5490 C.2    81  TRP81       0.2595
     39  O         10.6110    9.0420  -11.2790 O.2    81  TRP81      -0.2718
     40  CB         8.0490   10.8580  -10.1530 C.3    81  TRP81       0.0564
     41  CG         7.6750    9.3950  -10.1060 C.ar   81  TRP81       0.0003
     42  CD1        6.7990    8.7100  -10.9700 C.ar   81  TRP81       0.0946
     43  CD2        8.2390    8.3970   -9.2330 C.ar   81  TRP81       0.0152
     44  NE1        6.7670    7.3960  -10.6140 N.ar   81  TRP81      -0.2442
     45  CE2        7.6420    7.1740   -9.5660 C.ar   81  TRP81       0.0810
     46  CE3        9.1640    8.4430   -8.1580 C.ar   81  TRP81       0.0012
     47  CZ2        7.9620    5.9890   -8.9040 C.ar   81  TRP81       0.0191
     48  CZ3        9.4670    7.2870   -7.4720 C.ar   81  TRP81       0.0001
     49  CH2        8.8350    6.0590   -7.8380 C.ar   81  TRP81       0.0015
     50  N          9.9370   10.5620  -12.7910 N.am   82  ILE82      -0.1980
     51  CA        10.4230    9.7820  -13.9310 C.3    82  ILE82       0.1595
     52  C         11.9530    9.6420  -13.8190 C.2    82  ILE82       0.2287
     53  O         12.5070    8.5280  -13.9960 O.2    82  ILE82      -0.2864
     54  CB        10.0020   10.4070  -15.2730 C.3    82  ILE82       0.0276
     55  CG1        8.4800   10.1960  -15.4280 C.3    82  ILE82       0.0022
     56  CG2       10.5790    9.6300  -16.3990 C.3    82  ILE82       0.0022
     57  CD1        7.8870   11.0610  -16.4940 C.3    82  ILE82       0.0001
     58  N         12.6020    7.0010  -11.0020 N.3    85  LYS85      -0.1231
     59  CA        12.2610    5.6870  -11.5830 C.3    85  LYS85       0.1693
     60  C         13.3170    5.1060  -12.4930 C.2    85  LYS85       0.2591
     61  O         13.7140    3.9340  -12.4010 O.2    85  LYS85      -0.2718
     62  CB        11.0670    5.8530  -12.5220 C.3    85  LYS85       0.0285
     63  CG         9.7980    5.8880  -11.8450 C.3    85  LYS85       0.0035
     64  CD         8.7370    5.9660  -12.9670 C.3    85  LYS85       0.0206
     65  CE         8.2630    4.5350  -13.2970 C.3    85  LYS85       0.1093
     66  NZ         7.3090    4.4770  -14.4130 N.3    85  LYS85      -0.1314
     67  N         13.7370    5.9280  -13.4230 N.am   86  LEU86      -0.1980
     68  CA        14.8310    5.5370  -14.3590 C.3    86  LEU86       0.1596
     69  C         16.1330    5.1640  -13.6480 C.2    86  LEU86       0.2287
     70  O         16.7990    4.1930  -14.0270 O.2    86  LEU86      -0.2864
     71  CB        15.0390    6.6760  -15.2940 C.3    86  LEU86       0.0297
     72  CG        14.0370    6.7890  -16.4670 C.3    86  LEU86       0.0022
     73  CD1       14.3030    8.0620  -17.3190 C.3    86  LEU86       0.0001
     74  CD2       14.1010    5.5380  -17.3220 C.3    86  LEU86       0.0001
     75  N         15.6070    1.7400  -11.8090 N.3    89  SER89      -0.1217
     76  CA        15.7020    0.5830  -12.7080 C.3    89  SER89       0.1889
     77  C         17.1480    0.3180  -13.0770 C.2    89  SER89       0.2288
     78  O         17.6120   -0.8250  -13.0810 O.2    89  SER89      -0.2866
     79  CB        14.8660    0.8090  -13.9710 C.3    89  SER89       0.2089
     80  OG        15.0740   -0.2970  -14.8560 O.3    89  SER89      -0.2183
     81  N         -0.6950   -4.7710   -9.6740 N.3   117  LEU117     -0.1245
     82  CA         0.1330   -3.6700  -10.1420 C.3   117  LEU117      0.1561
     83  C         -0.6980   -2.3910  -10.3040 C.2   117  LEU117      0.2260
     84  O         -0.2650   -1.3190   -9.8750 O.2   117  LEU117     -0.2867
     85  CB         0.8070   -4.0480  -11.4530 C.3   117  LEU117      0.0270
     86  CG         1.8400   -5.1450  -11.3750 C.3   117  LEU117      0.0019
     87  CD1        1.3670   -6.4990  -11.1050 C.3   117  LEU117      0.0001
     88  CD2        2.5340   -5.2960  -12.7710 C.3   117  LEU117      0.0001
     89  N         -1.6520   -0.7320   -7.2930 N.3   120  SER120     -0.1202
     90  CA        -0.4490   -0.2570   -6.6610 C.3   120  SER120      0.2020
     91  C          0.0580    1.0550   -7.2240 C.2   120  SER120      0.2618
     92  O          0.8420    1.6900   -6.5390 O.2   120  SER120     -0.2717
     93  CB         0.6610   -1.3270   -6.6180 C.3   120  SER120      0.2103
     94  OG         1.5680   -1.2080   -7.7070 O.3   120  SER120     -0.2182
     95  N         -0.4030    1.4840   -8.4060 N.am  121  GLN121     -0.1979
     96  CA        -0.1100    2.8670   -8.8920 C.3   121  GLN121      0.1601
     97  C         -1.1700    3.8850   -8.5390 C.2   121  GLN121      0.2287
     98  O         -1.0730    5.0690   -8.9180 O.2   121  GLN121     -0.2864
     99  CB         0.0870    2.9140  -10.4020 C.3   121  GLN121      0.0394
    100  CG         1.1110    1.9150  -10.9120 C.3   121  GLN121      0.0908
    101  CD         1.7330    2.3300  -12.2370 C.2   121  GLN121      0.2608
    102  OE1        1.2680    3.2610  -12.9110 O.2   121  GLN121     -0.2717
    103  NE2        2.8280    1.6630  -12.5960 N.am  121  GLN121     -0.0878
    104  N         -0.2540    7.3880   -6.9850 N.3   124  PHE124     -0.1227
    105  CA         0.2670    8.3330   -7.9510 C.3   124  PHE124      0.1736
    106  C         -0.8380    9.1140   -8.7260 C.2   124  PHE124      0.2595
    107  O         -0.8560   10.3460   -8.7480 O.2   124  PHE124     -0.2718
    108  CB         1.2120    7.5960   -8.9670 C.3   124  PHE124      0.0547
    109  CG         1.7480    8.4960  -10.0690 C.ar  124  PHE124     -0.0202
    110  CD1        2.8760    9.2950   -9.8620 C.ar  124  PHE124     -0.0042
    111  CD2        1.1050    8.5530  -11.3120 C.ar  124  PHE124     -0.0042
    112  CE1        3.3380   10.1430  -10.8970 C.ar  124  PHE124     -0.0003
    113  CE2        1.5160    9.3970  -12.3150 C.ar  124  PHE124     -0.0003
    114  CZ         2.6610   10.1780  -12.1360 C.ar  124  PHE124     -0.0000
    115  N         -1.7740    8.4000   -9.3340 N.am  125  PHE125     -0.1976
    116  CA        -2.7600    9.0780  -10.1820 C.3   125  PHE125      0.1639
    117  C         -3.8280    9.8220   -9.3600 C.2   125  PHE125      0.2290
    118  O         -4.3910   10.7950   -9.8410 O.2   125  PHE125     -0.2864
    119  CB        -3.4230    8.0780  -11.1090 C.3   125  PHE125      0.0560
    120  CG        -2.5240    7.6490  -12.2420 C.ar  125  PHE125     -0.0200
    121  CD1       -1.9790    6.3880  -12.2750 C.ar  125  PHE125     -0.0042
    122  CD2       -2.2010    8.5580  -13.2440 C.ar  125  PHE125     -0.0042
    123  CE1       -1.0770    6.0380  -13.3220 C.ar  125  PHE125     -0.0003
    124  CE2       -1.3290    8.2130  -14.3010 C.ar  125  PHE125     -0.0003
    125  CZ        -0.7800    6.9540  -14.3200 C.ar  125  PHE125     -0.0000
    126  N          1.8410    8.2930  -20.4530 N.3   153  PHE153     -0.1241
    127  CA         2.6930    7.4160  -19.5990 C.3   153  PHE153      0.1605
    128  C          2.6120    5.9460  -19.9610 C.2   153  PHE153      0.2264
    129  O          3.6500    5.2280  -19.9200 O.2   153  PHE153     -0.2867
    130  CB         2.3690    7.6010  -18.1430 C.3   153  PHE153      0.0534
    131  CG         2.6890    8.9480  -17.6290 C.ar  153  PHE153     -0.0203
    132  CD1        3.7290    9.7010  -18.2000 C.ar  153  PHE153     -0.0042
    133  CD2        2.0160    9.4550  -16.5220 C.ar  153  PHE153     -0.0042
    134  CE1        4.0460   10.9690  -17.7060 C.ar  153  PHE153     -0.0003
    135  CE2        2.3340   10.6970  -16.0310 C.ar  153  PHE153     -0.0003
    136  CZ         3.3480   11.4540  -16.6100 C.ar  153  PHE153     -0.0000
    137  N          4.8090    5.6470  -23.0900 N.3   156  PHE156     -0.1227
    138  CA         6.2360    5.7660  -22.6560 C.3   156  PHE156      0.1736
    139  C          6.7010    4.4630  -22.0140 C.2   156  PHE156      0.2595
    140  O          7.7960    3.8960  -22.3690 O.2   156  PHE156     -0.2718
    141  CB         6.3470    6.9750  -21.7270 C.3   156  PHE156      0.0547
    142  CG         7.7770    7.2980  -21.2330 C.ar  156  PHE156     -0.0202
    143  CD1        8.8870    6.5910  -21.6540 C.ar  156  PHE156     -0.0042
    144  CD2        7.9600    8.3390  -20.3400 C.ar  156  PHE156     -0.0042
    145  CE1       10.2070    6.9330  -21.1570 C.ar  156  PHE156     -0.0003
    146  CE2        9.2500    8.6790  -19.8690 C.ar  156  PHE156     -0.0003
    147  CZ        10.3530    7.9640  -20.2910 C.ar  156  PHE156     -0.0000
    148  N          5.9010    3.9250  -21.0980 N.am  157  GLU157     -0.1979
    149  CA         6.2470    2.6350  -20.4600 C.3   157  GLU157      0.1602
    150  C          6.3950    1.5200  -21.4880 C.2   157  GLU157      0.2287
    151  O          7.3380    0.7040  -21.4180 O.2   157  GLU157     -0.2864
    152  CB         5.1760    2.2450  -19.4140 C.3   157  GLU157      0.0415
    153  CG         5.2660    3.0610  -18.1680 C.3   157  GLU157      0.1163
    154  CD         3.9480    3.2140  -17.4270 C.2   157  GLU157      0.3649
    155  OE1        3.0140    2.4420  -17.7210 O.co2 157  GLU157     -0.2457
    156  OE2        3.8780    4.1050  -16.5470 O.co2 157  GLU157     -0.2457
    157  N          9.6350    2.0790  -23.5460 N.3   160  TYR160     -0.1241
    158  CA        10.7910    1.8430  -22.6500 C.3   160  TYR160      0.1605
    159  C         11.0900    0.3720  -22.4820 C.2   160  TYR160      0.2264
    160  O         12.2500   -0.0730  -22.6730 O.2   160  TYR160     -0.2867
    161  CB        10.5350    2.4970  -21.3050 C.3   160  TYR160      0.0534
    162  CG        11.6180    2.2870  -20.2990 C.ar  160  TYR160     -0.0201
    163  CD1       12.6780    3.1760  -20.2150 C.ar  160  TYR160     -0.0009
    164  CD2       11.5790    1.2130  -19.4350 C.ar  160  TYR160     -0.0009
    165  CE1       13.6600    2.9980  -19.2870 C.ar  160  TYR160      0.0417
    166  CE2       12.5960    1.0040  -18.5150 C.ar  160  TYR160      0.0417
    167  CZ        13.6250    1.9190  -18.4550 C.ar  160  TYR160      0.1957
    168  OH        14.6180    1.7750  -17.5140 O.3   160  TYR160     -0.2866
@<TRIPOS>BOND
     1   157   158    1
     2   137   138    1
     3   160   159    2
     4   138   139    1
     5   138   141    1
     6   158   159    1
     7   158   161    1
     8   140   139    2
     9   139   148   am
    10   141   142    1
    11   143   142   ar
    12   143   145   ar
    13   150   151    2
    14   150   149    1
    15   161   162    1
    16   142   144   ar
    17   145   147   ar
    18   148   149    1
    19   149   152    1
    20   126   127    1
    21   144   146   ar
    22   162   163   ar
    23   162   164   ar
    24   147   146   ar
    25   163   165   ar
    26   128   129    2
    27   128   127    1
    28   127   130    1
    29   164   166   ar
    30   152   153    1
    31   165   167   ar
    32   166   167   ar
    33   167   168    1
    34   132   134   ar
    35   132   131   ar
    36   153   154    1
    37   130   131    1
    38   155   154   ar
    39   134   136   ar
    40   131   133   ar
    41   154   156   ar
    42    74    72    1
    43    73    72    1
    44   136   135   ar
    45   133   135   ar
    46    57    55    1
    47    72    71    1
    48    56    54    1
    49    55    54    1
    50    71    68    1
    51    54    51    1
    52    80    79    1
    53    66    65    1
    54    68    69    1
    55    68    67    1
    56   125   124   ar
    57   125   123   ar
    58   124   122   ar
    59    70    69    2
    60    53    52    2
    61    79    76    1
    62    51    52    1
    63    51    50    1
    64    67    60   am
    65   123   121   ar
    66    65    64    1
    67   122   120   ar
    68    78    77    2
    69    77    76    1
    70    64    63    1
    71   102   101    2
    72    50    38   am
    73    88    86    1
    74    76    75    1
    75   103   101   am
    76    62    63    1
    77    62    59    1
    78    60    61    2
    79    60    59    1
    80   113   114   ar
    81   113   111   ar
    82   121   120   ar
    83   120   119    1
    84   101   100    1
    85   114   112   ar
    86    59    58    1
    87    38    39    2
    88    38    37    1
    89    85    86    1
    90    85    82    1
    91    86    87    1
    92   111   109   ar
    93   119   116    1
    94    42    44   ar
    95    42    41   ar
    96   100    99    1
    97   112   110   ar
    98    36    37    1
    99    44    45   ar
   100    37    40    1
   101    99    96    1
   102    83    82    1
   103    83    84    2
   104   116   117    1
   105   116   115    1
   106    40    41    1
   107    82    81    1
   108    41    43   ar
   109   109   110   ar
   110   109   108    1
   111   118   117    2
   112    45    43   ar
   113    45    47   ar
   114   115   106   am
   115    43    46   ar
   116    14    13    1
   117   108   105    1
   118    98    97    2
   119    47    49   ar
   120    96    97    1
   121    96    95    1
   122   107   106    2
   123   106   105    1
   124    95    91   am
   125    46    48   ar
   126   105   104    1
   127     7     5    1
   128    49    48   ar
   129    15    13    1
   130    13    12    1
   131    94    93    1
   132    89    90    1
   133    91    90    1
   134    91    92    2
   135    12     9    1
   136    33    31   ar
   137    33    35   ar
   138    90    93    1
   139     5     2    1
   140     5     6    1
   141    31    30   ar
   142    35    34   ar
   143     2     1    1
   144     2     3    1
   145    30    29    1
   146    30    32   ar
   147     9    10    1
   148     9     8    1
   149    34    32   ar
   150    29    26    1
   151    11    10    2
   152    10    16   am
   153     4     3    2
   154    26    25    1
   155    26    27    1
   156    16    17    1
   157    21    22    1
   158    21    20    1
   159    17    20    1
   160    17    18    1
   161    28    27    2
   162    22    24   am
   163    22    23    2
   164    18    19    2
