@<TRIPOS>MOLECULE
tmp/2iesB00.pdb
 86 82 0 0 0
SMALL
GASTEIGER

@<TRIPOS>ATOM
      1  N        -41.1350   63.4130   38.4280 N.3    55  THR55      -0.1203
      2  CA       -42.3240   63.3060   37.5950 C.3    55  THR55       0.1994
      3  C        -42.4400   64.4690   36.6250 C.2    55  THR55       0.2618
      4  O        -43.5520   64.8770   36.2980 O.2    55  THR55      -0.2717
      5  CB       -43.6220   63.2670   38.4280 C.3    55  THR55       0.1784
      6  OG1      -43.6790   64.4080   39.2870 O.3    55  THR55      -0.2211
      7  CG2      -43.6790   62.0260   39.2580 C.3    55  THR55       0.0376
      8  N        -41.3110   65.0080   36.1670 N.am   56  ASN56      -0.1960
      9  CA       -41.3530   66.1180   35.2230 C.3    56  ASN56       0.1819
     10  C        -41.9060   65.6620   33.8850 C.2    56  ASN56       0.2621
     11  O        -43.1150   65.7180   33.6670 O.2    56  ASN56      -0.2715
     12  CB       -39.9730   66.7300   35.0250 C.3    56  ASN56       0.1195
     13  CG       -39.8950   68.1580   35.5480 C.2    56  ASN56       0.2630
     14  OD1      -40.2300   68.4250   36.7090 O.2    56  ASN56      -0.2716
     15  ND2      -39.4500   69.0840   34.6960 N.am   56  ASN56      -0.0877
     16  N        -41.0570   65.2130   32.9730 N.am   57  HIS57      -0.1973
     17  CA       -41.5950   64.7750   31.6930 C.3    57  HIS57       0.1656
     18  C        -41.2950   63.3220   31.4910 C.2    57  HIS57       0.2291
     19  O        -40.9770   62.8700   30.3880 O.2    57  HIS57      -0.2864
     20  CB       -41.0320   65.6290   30.5710 C.3    57  HIS57       0.0771
     21  CG       -41.3280   67.0790   30.7560 C.ar   57  HIS57       0.0820
     22  ND1      -42.6170   67.5650   30.7970 N.ar   57  HIS57      -0.2267
     23  CD2      -40.5200   68.1230   31.0530 C.ar   57  HIS57       0.1154
     24  CE1      -42.5900   68.8450   31.1210 C.ar   57  HIS57       0.1986
     25  NE2      -41.3290   69.2070   31.2830 N.ar   57  HIS57      -0.2212
     26  N        -55.5960   71.4340   36.0140 N.3   136  ARG136     -0.1245
     27  CA       -55.4030   69.9920   35.8530 C.3   136  ARG136      0.1563
     28  C        -56.1820   69.2430   36.9360 C.2   136  ARG136      0.2260
     29  O        -56.0880   69.5840   38.1250 O.2   136  ARG136     -0.2867
     30  CB       -53.9220   69.6290   35.9870 C.3   136  ARG136      0.0307
     31  CG       -52.9670   70.4360   35.1350 C.3   136  ARG136      0.0489
     32  CD       -51.5280   70.1470   35.5690 C.3   136  ARG136      0.2205
     33  NE       -50.5240   70.8790   34.7970 N.pl3 136  ARG136     -0.0865
     34  CZ       -50.4160   70.8280   33.4720 C.cat 136  ARG136      0.5346
     35  NH1      -51.2580   70.0810   32.7660 N.pl3 136  ARG136      0.1354
     36  NH2      -49.4570   71.5100   32.8530 N.pl3 136  ARG136      0.1354
     37  N        -42.3420   73.8040   22.9750 N.3   184  GLU184     -0.1245
     38  CA       -42.0850   72.6680   23.8490 C.3   184  GLU184      0.1567
     39  C        -40.7740   71.9570   23.5190 C.2   184  GLU184      0.2260
     40  O        -40.7510   70.7280   23.4820 O.2   184  GLU184     -0.2867
     41  CB       -43.2730   71.6870   23.8920 C.3   184  GLU184      0.0388
     42  CG       -43.1900   70.6980   25.0720 C.3   184  GLU184      0.1160
     43  CD       -44.4540   69.8700   25.2880 C.2   184  GLU184      0.3649
     44  OE1      -45.4890   70.4310   25.7100 O.co2 184  GLU184     -0.2457
     45  OE2      -44.4060   68.6480   25.0430 O.co2 184  GLU184     -0.2457
     46  N        -51.2560   59.9820   26.2460 N.3   226  LYS226     -0.1245
     47  CA       -51.4770   60.4240   27.6140 C.3   226  LYS226      0.1561
     48  C        -52.2230   59.3610   28.4160 C.2   226  LYS226      0.2260
     49  O        -51.9800   59.2060   29.6140 O.2   226  LYS226     -0.2867
     50  CB       -52.2440   61.7400   27.6260 C.3   226  LYS226      0.0271
     51  CG       -51.3720   62.9260   27.3620 C.3   226  LYS226      0.0035
     52  CD       -50.6490   63.3200   28.6130 C.3   226  LYS226      0.0206
     53  CE       -49.8100   64.5720   28.3880 C.3   226  LYS226      0.1093
     54  NZ       -49.4520   65.2570   29.6740 N.3   226  LYS226     -0.1314
     55  N        -49.6740   56.6440   29.1410 N.3   229  ASP229     -0.1239
     56  CA       -48.8810   57.1370   30.2690 C.3   229  ASP229      0.1674
     57  C        -49.5840   56.8510   31.6070 C.2   229  ASP229      0.2266
     58  O        -49.0650   56.1340   32.4740 O.2   229  ASP229     -0.2867
     59  CB       -48.6290   58.6650   30.1520 C.3   229  ASP229      0.1410
     60  CG       -47.3110   59.0300   29.3830 C.2   229  ASP229      0.3668
     61  OD1      -46.2700   58.3410   29.5410 O.co2 229  ASP229     -0.2456
     62  OD2      -47.3080   60.0400   28.6370 O.co2 229  ASP229     -0.2456
     63  N        -54.0210   65.9980   32.3030 N.3   250  GLY250     -0.1210
     64  CA       -53.1680   65.3700   33.2920 C.3   250  GLY250      0.1956
     65  C        -51.7050   65.3010   32.8900 C.2   250  GLY250      0.2612
     66  O        -51.3170   65.7210   31.7880 O.2   250  GLY250     -0.2717
     67  N        -50.8940   64.7610   33.7980 N.am  251  GLY251     -0.1942
     68  CA       -49.4710   64.6220   33.5610 C.3   251  GLY251      0.2014
     69  C        -48.8690   63.8170   34.6900 C.2   251  GLY251      0.2639
     70  O        -49.3320   63.9120   35.8240 O.2   251  GLY251     -0.2714
     71  N        -47.8440   63.0270   34.3810 N.am  252  HIS252     -0.1959
     72  CA       -47.1740   62.1790   35.3670 C.3   252  HIS252      0.1787
     73  C        -47.2170   62.7580   36.7800 C.2   252  HIS252      0.2620
     74  O        -47.5790   62.0660   37.7340 O.2   252  HIS252     -0.2715
     75  CB       -45.7210   61.9500   34.9480 C.3   252  HIS252      0.0785
     76  CG       -45.5770   61.2170   33.6530 C.ar  252  HIS252      0.0821
     77  ND1      -45.8840   59.8820   33.5180 N.ar  252  HIS252     -0.2267
     78  CD2      -45.1930   61.6400   32.4260 C.ar  252  HIS252      0.1154
     79  CE1      -45.6980   59.5140   32.2630 C.ar  252  HIS252      0.1986
     80  NE2      -45.2790   60.5630   31.5790 N.ar  252  HIS252     -0.2212
     81  N        -46.8470   64.0280   36.9060 N.am  253  SER253     -0.1950
     82  CA       -46.8430   64.7020   38.1930 C.3   253  SER253      0.1924
     83  C        -48.1570   64.5080   38.9500 C.2   253  SER253      0.2314
     84  O        -48.1620   64.0090   40.0770 O.2   253  SER253     -0.2863
     85  CB       -46.5810   66.1930   37.9890 C.3   253  SER253      0.2116
     86  OG       -45.3280   66.4120   37.3650 O.3   253  SER253     -0.2180
@<TRIPOS>BOND
     1    37    38    1
     2    40    39    2
     3    39    38    1
     4    38    41    1
     5    41    42    1
     6    45    43   ar
     7    42    43    1
     8    43    44   ar
     9    46    47    1
    10    51    50    1
    11    51    52    1
    12    47    50    1
    13    47    48    1
    14    53    52    1
    15    53    54    1
    16    48    49    2
    17    62    60   ar
    18    55    56    1
    19    60    61   ar
    20    60    59    1
    21    59    56    1
    22    56    57    1
    23    19    18    2
    24    20    21    1
    25    20    17    1
    26    21    22   ar
    27    21    23   ar
    28    22    24   ar
    29    23    25   ar
    30    24    25   ar
    31    18    17    1
    32    80    79   ar
    33    80    78   ar
    34    57    58    2
    35    17    16    1
    36    66    65    2
    37    79    77   ar
    38    63    64    1
    39    78    76   ar
    40    35    34    1
    41    36    34    1
    42    65    64    1
    43    65    67   am
    44    16    10   am
    45    34    33    2
    46    77    76   ar
    47    68    67    1
    48    68    69    1
    49    76    75    1
    50    11    10    2
    51    10     9    1
    52    71    69   am
    53    71    72    1
    54    69    70    2
    55    15    13   am
    56    33    32    1
    57    75    72    1
    58    12     9    1
    59    12    13    1
    60    31    32    1
    61    31    30    1
    62     9     8    1
    63    72    73    1
    64    13    14    2
    65    27    30    1
    66    27    26    1
    67    27    28    1
    68     8     3   am
    69     4     3    2
    70     3     2    1
    71    73    81   am
    72    73    74    2
    73    81    82    1
    74    28    29    2
    75    86    85    1
    76     2     5    1
    77     2     1    1
    78    85    82    1
    79    82    83    1
    80     5     7    1
    81     5     6    1
    82    83    84    2
