@<TRIPOS>MOLECULE
tmp/2iesB01.pdb
 190 182 0 0 0
SMALL
GASTEIGER

@<TRIPOS>ATOM
      1  N        -34.7060   58.6650   25.8690 N.3    17  ILE17      -0.1231
      2  CA       -35.1770   59.9430   25.3170 C.3    17  ILE17       0.1692
      3  C        -34.6240   61.1900   26.0100 C.2    17  ILE17       0.2592
      4  O        -34.3340   62.1860   25.3570 O.2    17  ILE17      -0.2718
      5  CB       -36.7310   60.0130   25.2950 C.3    17  ILE17       0.0266
      6  CG1      -37.1750   61.0690   24.2910 C.3    17  ILE17       0.0019
      7  CG2      -37.2750   60.3350   26.6940 C.3    17  ILE17       0.0020
      8  CD1      -38.6350   61.0340   24.0070 C.3    17  ILE17       0.0001
      9  N        -34.4660   61.1320   27.3270 N.am   18  HIS18      -0.1976
     10  CA       -33.9590   62.2790   28.0510 C.3    18  HIS18       0.1656
     11  C        -32.4550   62.3140   28.1670 C.2    18  HIS18       0.2291
     12  O        -31.8290   63.2820   27.7530 O.2    18  HIS18      -0.2864
     13  CB       -34.5970   62.3530   29.4290 C.3    18  HIS18       0.0771
     14  CG       -36.0440   62.7180   29.3820 C.ar   18  HIS18       0.0820
     15  ND1      -36.5050   63.8180   28.6950 N.ar   18  HIS18      -0.2267
     16  CD2      -37.1340   62.1370   29.9340 C.ar   18  HIS18       0.1154
     17  CE1      -37.8160   63.9020   28.8290 C.ar   18  HIS18       0.1986
     18  NE2      -38.2230   62.8940   29.5770 N.ar   18  HIS18      -0.2212
     19  N        -41.0570   65.2130   32.9730 N.3    57  HIS57      -0.1226
     20  CA       -41.5950   64.7750   31.6930 C.3    57  HIS57       0.1752
     21  C        -41.2950   63.3220   31.4910 C.2    57  HIS57       0.2596
     22  O        -40.9770   62.8700   30.3880 O.2    57  HIS57      -0.2718
     23  CB       -41.0320   65.6290   30.5710 C.3    57  HIS57       0.0759
     24  CG       -41.3280   67.0790   30.7560 C.ar   57  HIS57       0.0818
     25  ND1      -42.6170   67.5650   30.7970 N.ar   57  HIS57      -0.2268
     26  CD2      -40.5200   68.1230   31.0530 C.ar   57  HIS57       0.1154
     27  CE1      -42.5900   68.8450   31.1210 C.ar   57  HIS57       0.1986
     28  NE2      -41.3290   69.2070   31.2830 N.ar   57  HIS57      -0.2212
     29  N        -41.4260   62.6030   32.6010 N.am   58  SER58      -0.1952
     30  CA       -41.1830   61.1740   32.6810 C.3    58  SER58       0.1924
     31  C        -41.3230   60.8110   34.1510 C.2    58  SER58       0.2314
     32  O        -41.2310   61.6790   35.0140 O.2    58  SER58      -0.2863
     33  CB       -39.7700   60.8460   32.1790 C.3    58  SER58       0.2116
     34  OG       -38.7970   61.6920   32.7730 O.3    58  SER58      -0.2180
     35  N        -37.8070   57.3210   33.0830 N.3    70  THR70      -0.1218
     36  CA       -38.8080   56.9140   32.1030 C.3    70  THR70       0.1862
     37  C        -39.2420   55.4480   32.1880 C.2    70  THR70       0.2287
     38  O        -38.9140   54.6360   31.3140 O.2    70  THR70      -0.2866
     39  CB       -38.2670   57.1810   30.6930 C.3    70  THR70       0.1770
     40  OG1      -37.6030   58.4520   30.6810 O.3    70  THR70      -0.2211
     41  CG2      -39.3920   57.1790   29.6840 C.3    70  THR70       0.0375
     42  N        -42.5810   54.6810   32.7240 N.3    72  GLU72      -0.1231
     43  CA       -44.0030   54.6470   32.3870 C.3    72  GLU72       0.1699
     44  C        -44.4050   53.7210   31.2500 C.2    72  GLU72       0.2592
     45  O        -45.2900   52.8840   31.4160 O.2    72  GLU72      -0.2718
     46  CB       -44.5290   56.0570   32.0920 C.3    72  GLU72       0.0402
     47  CG       -43.6880   56.8430   31.1150 C.3    72  GLU72       0.1161
     48  CD       -42.6810   57.7580   31.7990 C.2    72  GLU72       0.3649
     49  OE1      -42.0150   57.3310   32.7730 O.co2  72  GLU72      -0.2457
     50  OE2      -42.5520   58.9140   31.3480 O.co2  72  GLU72      -0.2457
     51  N        -43.7670   53.8500   30.0990 N.am   73  HIS73      -0.1976
     52  CA       -44.1480   53.0090   28.9830 C.3    73  HIS73       0.1656
     53  C        -43.9790   51.5290   29.3000 C.2    73  HIS73       0.2291
     54  O        -44.9450   50.7690   29.2450 O.2    73  HIS73      -0.2864
     55  CB       -43.3670   53.4220   27.7440 C.3    73  HIS73       0.0771
     56  CG       -43.5320   54.8700   27.4010 C.ar   73  HIS73       0.0820
     57  ND1      -42.9860   55.4420   26.2740 N.ar   73  HIS73      -0.2267
     58  CD2      -44.1640   55.8730   28.0570 C.ar   73  HIS73       0.1154
     59  CE1      -43.2710   56.7330   26.2520 C.ar   73  HIS73       0.1986
     60  NE2      -43.9850   57.0200   27.3230 N.ar   73  HIS73      -0.2212
     61  N        -44.9340   59.3660   21.7910 N.3   178  THR178     -0.1203
     62  CA       -44.7740   60.4800   22.7030 C.3   178  THR178      0.1994
     63  C        -44.8010   61.7540   21.8690 C.2   178  THR178      0.2618
     64  O        -44.3340   61.7610   20.7230 O.2   178  THR178     -0.2717
     65  CB       -43.4370   60.3800   23.4450 C.3   178  THR178      0.1784
     66  OG1      -43.0510   61.6770   23.9240 O.3   178  THR178     -0.2211
     67  CG2      -42.3690   59.8290   22.5260 C.3   178  THR178      0.0376
     68  N        -45.3400   62.8310   22.4350 N.am  179  PHE179     -0.1961
     69  CA       -45.4180   64.0910   21.7020 C.3   179  PHE179      0.1771
     70  C        -44.9280   65.3070   22.4810 C.2   179  PHE179      0.2619
     71  O        -44.8470   65.2900   23.7110 O.2   179  PHE179     -0.2715
     72  CB       -46.8510   64.3290   21.2760 C.3   179  PHE179      0.0574
     73  CG       -47.7880   64.5080   22.4230 C.ar  179  PHE179     -0.0200
     74  CD1      -48.0320   65.7630   22.9430 C.ar  179  PHE179     -0.0042
     75  CD2      -48.4200   63.4200   22.9900 C.ar  179  PHE179     -0.0042
     76  CE1      -48.8970   65.9370   24.0110 C.ar  179  PHE179     -0.0003
     77  CE2      -49.2880   63.5840   24.0590 C.ar  179  PHE179     -0.0003
     78  CZ       -49.5270   64.8460   24.5680 C.ar  179  PHE179     -0.0000
     79  N        -44.6150   66.3650   21.7460 N.am  180  ALA180     -0.1977
     80  CA       -44.1440   67.6070   22.3300 C.3   180  ALA180      0.1597
     81  C        -44.4430   68.6810   21.3150 C.2   180  ALA180      0.2287
     82  O        -44.3860   68.4170   20.1180 O.2   180  ALA180     -0.2864
     83  CB       -42.6620   67.5390   22.5640 C.3   180  ALA180      0.0319
     84  N        -42.3420   73.8040   22.9750 N.3   184  GLU184     -0.1231
     85  CA       -42.0850   72.6680   23.8490 C.3   184  GLU184      0.1699
     86  C        -40.7740   71.9570   23.5190 C.2   184  GLU184      0.2592
     87  O        -40.7510   70.7280   23.4820 O.2   184  GLU184     -0.2718
     88  CB       -43.2730   71.6870   23.8920 C.3   184  GLU184      0.0402
     89  CG       -43.1900   70.6980   25.0720 C.3   184  GLU184      0.1161
     90  CD       -44.4540   69.8700   25.2880 C.2   184  GLU184      0.3649
     91  OE1      -45.4890   70.4310   25.7100 O.co2 184  GLU184     -0.2457
     92  OE2      -44.4060   68.6480   25.0430 O.co2 184  GLU184     -0.2457
     93  N        -39.6600   72.6770   23.3070 N.am  185  ILE185     -0.1980
     94  CA       -38.4950   71.8490   22.9960 C.3   185  ILE185      0.1595
     95  C        -37.2930   72.5860   23.5810 C.2   185  ILE185      0.2287
     96  O        -36.4350   71.9870   24.2360 O.2   185  ILE185     -0.2864
     97  CB       -38.2560   71.6960   21.4760 C.3   185  ILE185      0.0276
     98  CG1      -39.4780   71.0820   20.7920 C.3   185  ILE185      0.0022
     99  CG2      -37.0370   70.8140   21.2410 C.3   185  ILE185      0.0022
    100  CD1      -39.7170   69.6300   21.1390 C.3   185  ILE185      0.0001
    101  N        -37.3210   72.2080   27.4250 N.3   188  ILE188     -0.1231
    102  CA       -36.9340   70.8410   27.7700 C.3   188  ILE188      0.1692
    103  C        -35.4380   70.5880   27.6550 C.2   188  ILE188      0.2591
    104  O        -34.8340   69.9840   28.5480 O.2   188  ILE188     -0.2718
    105  CB       -37.6670   69.8100   26.8840 C.3   188  ILE188      0.0266
    106  CG1      -39.1570   69.8170   27.2180 C.3   188  ILE188      0.0019
    107  CG2      -37.0720   68.4260   27.0850 C.3   188  ILE188      0.0020
    108  CD1      -39.9660   68.8930   26.3580 C.3   188  ILE188      0.0001
    109  N        -34.8450   71.0350   26.5540 N.am  189  LYS189     -0.1980
    110  CA       -33.4140   70.8440   26.3410 C.3   189  LYS189      0.1596
    111  C        -32.5990   71.6650   27.3490 C.2   189  LYS189      0.2287
    112  O        -31.5260   71.2460   27.7960 O.2   189  LYS189     -0.2864
    113  CB       -33.0350   71.2640   24.9170 C.3   189  LYS189      0.0298
    114  CG       -33.5640   70.3590   23.8140 C.3   189  LYS189      0.0038
    115  CD       -32.5720   69.2580   23.4670 C.3   189  LYS189      0.0206
    116  CE       -32.9810   68.5140   22.1910 C.3   189  LYS189      0.1093
    117  NZ       -31.9280   67.5430   21.7260 N.3   189  LYS189     -0.1314
    118  N        -34.4630   65.4530   27.2390 N.3   194  GLY194     -0.1225
    119  CA       -34.6940   65.2270   25.8250 C.3   194  GLY194      0.1811
    120  C        -33.4390   65.0920   24.9780 C.2   194  GLY194      0.2280
    121  O        -33.4880   65.2420   23.7540 O.2   194  GLY194     -0.2866
    122  N        -34.1660   62.8220   22.2650 N.3   197  GLY197     -0.1210
    123  CA       -35.2780   63.1240   21.3780 C.3   197  GLY197      0.1956
    124  C        -34.9590   63.3860   19.9150 C.2   197  GLY197      0.2613
    125  O        -33.9150   63.9520   19.5800 O.2   197  GLY197     -0.2717
    126  N        -35.8730   62.9710   19.0420 N.am  198  SER198     -0.1938
    127  CA       -35.7350   63.1650   17.6000 C.3   198  SER198      0.2055
    128  C        -37.0830   62.8860   16.9610 C.2   198  SER198      0.2642
    129  O        -37.9810   62.3530   17.6100 O.2   198  SER198     -0.2714
    130  CB       -34.7140   62.1950   17.0070 C.3   198  SER198      0.2130
    131  OG       -35.3330   60.9790   16.6150 O.3   198  SER198     -0.2179
    132  N        -37.2340   63.2330   15.6910 N.am  199  LEU199     -0.1977
    133  CA       -38.4930   62.9670   15.0160 C.3   199  LEU199      0.1596
    134  C        -38.7060   61.4660   14.8220 C.2   199  LEU199      0.2287
    135  O        -39.7920   61.0340   14.4510 O.2   199  LEU199     -0.2864
    136  CB       -38.5280   63.6660   13.6670 C.3   199  LEU199      0.0297
    137  CG       -38.4410   65.1780   13.7870 C.3   199  LEU199      0.0022
    138  CD1      -38.5550   65.7960   12.4130 C.3   199  LEU199      0.0001
    139  CD2      -39.5520   65.6780   14.6930 C.3   199  LEU199      0.0001
    140  N        -39.8350   60.8300   18.7590 N.3   202  THR202     -0.1218
    141  CA       -40.8250   61.7670   19.2830 C.3   202  THR202      0.1862
    142  C        -41.6580   62.3870   18.1880 C.2   202  THR202      0.2287
    143  O        -41.1760   62.6200   17.0820 O.2   202  THR202     -0.2866
    144  CB       -40.1560   62.9250   20.0460 C.3   202  THR202      0.1770
    145  OG1      -39.6010   62.4360   21.2690 O.3   202  THR202     -0.2211
    146  CG2      -41.1580   64.0150   20.3540 C.3   202  THR202      0.0375
    147  N        -43.3250   65.6100   17.1090 N.3   204  VAL204     -0.1245
    148  CA       -43.3280   67.0540   17.3330 C.3   204  VAL204      0.1561
    149  C        -44.4760   67.7980   16.6490 C.2   204  VAL204      0.2260
    150  O        -44.6310   67.7300   15.4410 O.2   204  VAL204     -0.2867
    151  CB       -41.9850   67.6560   16.8630 C.3   204  VAL204      0.0252
    152  CG1      -41.9960   69.1500   17.0440 C.3   204  VAL204      0.0019
    153  CG2      -40.8460   67.0430   17.6390 C.3   204  VAL204      0.0019
    154  N        -51.6570   58.6090   23.7900 N.3   225  HIS225     -0.1226
    155  CA       -50.4420   58.4140   24.5660 C.3   225  HIS225      0.1752
    156  C        -50.6420   58.8320   26.0230 C.2   225  HIS225      0.2595
    157  O        -50.2350   58.1310   26.9370 O.2   225  HIS225     -0.2718
    158  CB       -49.2770   59.2170   24.0010 C.3   225  HIS225      0.0759
    159  CG       -48.0050   59.0180   24.7600 C.ar  225  HIS225      0.0818
    160  ND1      -47.1100   58.0170   24.4580 N.ar  225  HIS225     -0.2268
    161  CD2      -47.5280   59.6290   25.8700 C.ar  225  HIS225      0.1154
    162  CE1      -46.1370   58.0180   25.3520 C.ar  225  HIS225      0.1986
    163  NE2      -46.3670   58.9860   26.2200 N.ar  225  HIS225     -0.2212
    164  N        -51.2560   59.9820   26.2460 N.am  226  LYS226     -0.1980
    165  CA       -51.4770   60.4240   27.6140 C.3   226  LYS226      0.1596
    166  C        -52.2230   59.3610   28.4160 C.2   226  LYS226      0.2287
    167  O        -51.9800   59.2060   29.6140 O.2   226  LYS226     -0.2864
    168  CB       -52.2440   61.7400   27.6260 C.3   226  LYS226      0.0298
    169  CG       -51.3720   62.9260   27.3620 C.3   226  LYS226      0.0038
    170  CD       -50.6490   63.3200   28.6130 C.3   226  LYS226      0.0206
    171  CE       -49.8100   64.5720   28.3880 C.3   226  LYS226      0.1093
    172  NZ       -49.4520   65.2570   29.6740 N.3   226  LYS226     -0.1314
    173  N        -49.6740   56.6440   29.1410 N.3   229  ASP229     -0.1239
    174  CA       -48.8810   57.1370   30.2690 C.3   229  ASP229      0.1674
    175  C        -49.5840   56.8510   31.6070 C.2   229  ASP229      0.2266
    176  O        -49.0650   56.1340   32.4740 O.2   229  ASP229     -0.2867
    177  CB       -48.6290   58.6650   30.1520 C.3   229  ASP229      0.1410
    178  CG       -47.3110   59.0300   29.3830 C.2   229  ASP229      0.3668
    179  OD1      -46.2700   58.3410   29.5410 O.co2 229  ASP229     -0.2456
    180  OD2      -47.3080   60.0400   28.6370 O.co2 229  ASP229     -0.2456
    181  N        -47.8440   63.0270   34.3810 N.3   252  HIS252     -0.1241
    182  CA       -47.1740   62.1790   35.3670 C.3   252  HIS252      0.1621
    183  C        -47.2170   62.7580   36.7800 C.2   252  HIS252      0.2264
    184  O        -47.5790   62.0660   37.7340 O.2   252  HIS252     -0.2867
    185  CB       -45.7210   61.9500   34.9480 C.3   252  HIS252      0.0745
    186  CG       -45.5770   61.2170   33.6530 C.ar  252  HIS252      0.0817
    187  ND1      -45.8840   59.8820   33.5180 N.ar  252  HIS252     -0.2268
    188  CD2      -45.1930   61.6400   32.4260 C.ar  252  HIS252      0.1154
    189  CE1      -45.6980   59.5140   32.2630 C.ar  252  HIS252      0.1986
    190  NE2      -45.2790   60.5630   31.5790 N.ar  252  HIS252     -0.2212
@<TRIPOS>BOND
     1   138   137    1
     2   136   137    1
     3   136   133    1
     4   137   139    1
     5   135   134    2
     6   134   133    1
     7   133   132    1
     8   150   149    2
     9   132   128   am
    10   131   130    1
    11   149   148    1
    12   151   152    1
    13   151   148    1
    14   151   153    1
    15   128   127    1
    16   128   129    2
    17   130   127    1
    18   143   142    2
    19   147   148    1
    20   127   126    1
    21   142   141    1
    22   140   141    1
    23   126   124   am
    24   141   144    1
    25   125   124    2
    26   124   123    1
    27   144   146    1
    28   144   145    1
    29    82    81    2
    30    64    63    2
    31    98   100    1
    32    98    97    1
    33    99    97    1
    34    72    69    1
    35    72    73    1
    36    81    80    1
    37   123   122    1
    38    97    94    1
    39    69    68    1
    40    69    70    1
    41   117   116    1
    42    79    80    1
    43    79    70   am
    44    61    62    1
    45    63    68   am
    46    63    62    1
    47   116   115    1
    48    80    83    1
    49    73    74   ar
    50    73    75   ar
    51    70    71    2
    52    67    65    1
    53    62    65    1
    54    74    76   ar
    55    84    85    1
    56    75    77   ar
    57    94    93    1
    58    94    95    1
    59    93    86   am
    60    65    66    1
    61   115   114    1
    62    87    86    2
    63    86    85    1
    64    95    96    2
    65   121   120    2
    66   154   155    1
    67   114   113    1
    68    85    88    1
    69    88    89    1
    70   158   155    1
    71   158   159    1
    72     8     6    1
    73    76    78   ar
    74    77    78   ar
    75     6     5    1
    76   160   159   ar
    77   160   162   ar
    78   155   156    1
    79   159   161   ar
    80   113   110    1
    81   120   119    1
    82    92    90   ar
    83    89    90    1
    84    90    91   ar
    85     5     2    1
    86     5     7    1
    87     2     1    1
    88     2     3    1
    89   162   163   ar
    90     4     3    2
    91   119   118    1
    92   161   163   ar
    93     3     9   am
    94   156   164   am
    95   156   157    2
    96   164   165    1
    97    59    57   ar
    98    59    60   ar
    99    57    56   ar
   100   110   109    1
   101   110   111    1
   102   108   106    1
   103   109   103   am
   104   105   107    1
   105   105   106    1
   106   105   102    1
   107    60    58   ar
   108     9    10    1
   109   111   112    2
   110   169   168    1
   111   169   170    1
   112    56    55    1
   113    56    58   ar
   114   101   102    1
   115   165   168    1
   116   165   166    1
   117   103   102    1
   118   103   104    2
   119    55    52    1
   120    12    11    2
   121    10    11    1
   122    10    13    1
   123   171   170    1
   124   171   172    1
   125   166   167    2
   126   180   178   ar
   127    15    17   ar
   128    15    14   ar
   129    17    18   ar
   130    52    53    1
   131    52    51    1
   132   173   174    1
   133    54    53    2
   134    14    13    1
   135    14    16   ar
   136   178   179   ar
   137   178   177    1
   138    18    16   ar
   139    41    39    1
   140    51    44   am
   141   177   174    1
   142   174   175    1
   143    22    21    2
   144    23    24    1
   145    23    20    1
   146    40    39    1
   147    39    36    1
   148    24    25   ar
   149    24    26   ar
   150    25    27   ar
   151    26    28   ar
   152    47    48    1
   153    47    46    1
   154    27    28   ar
   155    44    45    2
   156    44    43    1
   157    38    37    2
   158    50    48   ar
   159    21    20    1
   160    21    29   am
   161   190   189   ar
   162   190   188   ar
   163   175   176    2
   164    20    19    1
   165    48    49   ar
   166    46    43    1
   167    36    37    1
   168    36    35    1
   169    33    30    1
   170    33    34    1
   171   189   187   ar
   172    43    42    1
   173   188   186   ar
   174    29    30    1
   175    30    31    1
   176   187   186   ar
   177   186   185    1
   178    31    32    2
   179   181   182    1
   180   185   182    1
   181   182   183    1
   182   183   184    2
