@<TRIPOS>MOLECULE
tmp/2iezB00.pdb
 93 89 0 0 0
SMALL
GASTEIGER

@<TRIPOS>ATOM
      1  N        -45.6430  -28.8720   29.8670 N.3    16  SER16      -0.1202
      2  CA       -46.7220  -29.2070   30.7950 C.3    16  SER16       0.2020
      3  C        -46.9020  -28.0770   31.7800 C.2    16  SER16       0.2619
      4  O        -45.9730  -27.3060   32.0140 O.2    16  SER16      -0.2717
      5  CB       -46.5110  -30.5640   31.4840 C.3    16  SER16       0.2103
      6  OG       -45.1670  -30.7630   31.8730 O.3    16  SER16      -0.2182
      7  N        -48.1100  -27.9530   32.3220 N.am   17  GLY17      -0.1942
      8  CA       -48.4410  -26.8350   33.1980 C.3    17  GLY17       0.2014
      9  C        -48.5920  -25.4940   32.4730 C.2    17  GLY17       0.2639
     10  O        -48.5400  -24.4330   33.1050 O.2    17  GLY17      -0.2714
     11  N        -48.7760  -25.5340   31.1560 N.am   18  VAL18      -0.1963
     12  CA       -48.9890  -24.3160   30.3590 C.3    18  VAL18       0.1727
     13  C        -50.4700  -23.9440   30.3280 C.2    18  VAL18       0.2617
     14  O        -50.8230  -22.7550   30.3700 O.2    18  VAL18      -0.2715
     15  CB       -48.4640  -24.4780   28.8950 C.3    18  VAL18       0.0290
     16  CG1      -49.1780  -23.5590   27.9850 C.3    18  VAL18       0.0023
     17  CG2      -46.9760  -24.2100   28.8070 C.3    18  VAL18       0.0023
     18  N        -51.3240  -24.9670   30.2290 N.am   19  GLY19      -0.1940
     19  CA       -52.7700  -24.7840   30.1950 C.3    19  GLY19       0.2014
     20  C        -53.5070  -25.5350   29.0910 C.2    19  GLY19       0.2639
     21  O        -54.7220  -25.3430   28.9100 O.2    19  GLY19      -0.2714
     22  N        -52.7810  -26.3870   28.3630 N.am   20  LYS20      -0.1963
     23  CA       -53.3600  -27.2570   27.3410 C.3    20  LYS20       0.1728
     24  C        -54.7080  -27.8120   27.7740 C.2    20  LYS20       0.2617
     25  O        -55.7270  -27.5470   27.1320 O.2    20  LYS20      -0.2715
     26  CB       -52.4120  -28.4120   27.0150 C.3    20  LYS20       0.0311
     27  CG       -51.1760  -27.9990   26.2070 C.3    20  LYS20       0.0038
     28  CD       -50.1260  -29.0880   26.1190 C.3    20  LYS20       0.0206
     29  CE       -49.4960  -29.3520   27.4680 C.3    20  LYS20       0.1093
     30  NZ       -48.0850  -29.8170   27.3330 N.3    20  LYS20      -0.1314
     31  N        -54.7310  -28.5460   28.8770 N.am   21  THR21      -0.1937
     32  CA       -55.9580  -29.1750   29.3190 C.3    21  THR21       0.2028
     33  C        -57.0250  -28.1800   29.7450 C.2    21  THR21       0.2642
     34  O        -58.1890  -28.3090   29.3600 O.2    21  THR21      -0.2714
     35  CB       -55.7240  -30.2210   30.4680 C.3    21  THR21       0.1808
     36  OG1      -54.5900  -31.0470   30.1660 O.3    21  THR21      -0.2208
     37  CG2      -56.9310  -31.0980   30.6520 C.3    21  THR21       0.0379
     38  N        -56.6400  -27.1820   30.5300 N.am   22  THR22      -0.1950
     39  CA       -57.5890  -26.1500   30.9440 C.3    22  THR22       0.1897
     40  C        -58.1360  -25.4000   29.7170 C.2    22  THR22       0.2313
     41  O        -59.3290  -25.0820   29.6480 O.2    22  THR22      -0.2863
     42  CB       -56.9610  -25.1780   31.9500 C.3    22  THR22       0.1794
     43  OG1      -56.3150  -25.9250   32.9960 O.3    22  THR22      -0.2208
     44  CG2      -58.0180  -24.2900   32.5600 C.3    22  THR22       0.0378
     45  N        -50.7760  -18.5300   26.7600 N.3   115  ASN115     -0.1225
     46  CA       -51.8580  -18.7440   27.7260 C.3   115  ASN115      0.1785
     47  C        -51.5550  -17.9690   29.0090 C.2   115  ASN115      0.2597
     48  O        -50.4600  -17.4140   29.1480 O.2   115  ASN115     -0.2718
     49  CB       -52.0790  -20.2300   27.9900 C.3   115  ASN115      0.1169
     50  CG       -53.4870  -20.5360   28.5050 C.2   115  ASN115      0.2627
     51  OD1      -54.4640  -19.8760   28.1240 O.2   115  ASN115     -0.2716
     52  ND2      -53.5930  -21.5510   29.3710 N.am  115  ASN115     -0.0877
     53  N        -52.5240  -17.9100   29.9220 N.am  116  LYS116     -0.1980
     54  CA       -52.3810  -17.1900   31.1970 C.3   116  LYS116      0.1596
     55  C        -52.3270  -15.6460   31.0700 C.2   116  LYS116      0.2287
     56  O        -51.7250  -14.9810   31.9100 O.2   116  LYS116     -0.2864
     57  CB       -51.1740  -17.6990   32.0230 C.3   116  LYS116      0.0298
     58  CG       -51.0180  -19.2200   32.1510 C.3   116  LYS116      0.0038
     59  CD       -51.4540  -19.7430   33.5130 C.3   116  LYS116      0.0206
     60  CE       -50.5080  -20.8210   34.0580 C.3   116  LYS116      0.1093
     61  NZ       -50.2530  -21.9660   33.1410 N.3   116  LYS116     -0.1314
     62  N        -54.3710  -13.5200   31.8710 N.3   118  ASP118     -0.1225
     63  CA       -55.1440  -12.9260   32.9750 C.3   118  ASP118      0.1805
     64  C        -54.2610  -12.7400   34.2270 C.2   118  ASP118      0.2597
     65  O        -54.7590  -12.4190   35.3160 O.2   118  ASP118     -0.2718
     66  CB       -56.3170  -13.8500   33.3050 C.3   118  ASP118      0.1424
     67  CG       -55.8970  -15.3100   33.3420 C.2   118  ASP118      0.3668
     68  OD1      -55.6590  -15.8740   32.2600 O.co2 118  ASP118     -0.2456
     69  OD2      -55.7690  -15.8810   34.4460 O.co2 118  ASP118     -0.2456
     70  N        -52.9540  -12.9490   34.0560 N.am  119  LEU119     -0.1979
     71  CA       -51.9770  -12.7590   35.1280 C.3   119  LEU119      0.1596
     72  C        -50.8780  -11.7660   34.7310 C.2   119  LEU119      0.2287
     73  O        -49.7270  -12.1590   34.5100 O.2   119  LEU119     -0.2864
     74  CB       -51.3720  -14.1030   35.5510 C.3   119  LEU119      0.0297
     75  CG       -52.3100  -15.1570   36.1390 C.3   119  LEU119      0.0022
     76  CD1      -51.5560  -16.4620   36.3320 C.3   119  LEU119      0.0001
     77  CD2      -52.9280  -14.6830   37.4550 C.3   119  LEU119      0.0001
     78  N        -56.6550  -16.4110   27.8050 N.3   145  SER145     -0.1202
     79  CA       -56.9090  -16.8450   29.1590 C.3   145  SER145      0.2020
     80  C        -57.8180  -18.0410   29.0700 C.2   145  SER145      0.2619
     81  O        -58.9610  -17.9010   28.6380 O.2   145  SER145     -0.2717
     82  CB       -57.6040  -15.7440   29.9690 C.3   145  SER145      0.2103
     83  OG       -57.9800  -16.2240   31.2510 O.3   145  SER145     -0.2182
     84  N        -57.3260  -19.2110   29.4620 N.am  146  ALA146     -0.1965
     85  CA       -58.2100  -20.3710   29.6190 C.3   146  ALA146      0.1728
     86  C        -59.1310  -20.1530   30.8150 C.2   146  ALA146      0.2616
     87  O        -60.1960  -20.7460   30.8960 O.2   146  ALA146     -0.2715
     88  CB       -57.4190  -21.6520   29.7800 C.3   146  ALA146      0.0334
     89  N        -58.7100  -19.2860   31.7330 N.am  147  ALA147     -0.1977
     90  CA       -59.5360  -18.8990   32.8760 C.3   147  ALA147      0.1597
     91  C        -60.7330  -18.0090   32.4810 C.2   147  ALA147      0.2287
     92  O        -61.8240  -18.1740   33.0170 O.2   147  ALA147     -0.2864
     93  CB       -58.6770  -18.2340   33.9600 C.3   147  ALA147      0.0319
@<TRIPOS>BOND
     1    28    27    1
     2    28    29    1
     3    27    26    1
     4    45    46    1
     5    26    23    1
     6    25    24    2
     7    30    29    1
     8    23    24    1
     9    23    22    1
    10    46    49    1
    11    46    47    1
    12    24    31   am
    13    78    79    1
    14    16    15    1
    15    49    50    1
    16    51    50    2
    17    22    20   am
    18    50    52   am
    19    81    80    2
    20    17    15    1
    21    31    32    1
    22    15    12    1
    23    21    20    2
    24    47    48    2
    25    47    53   am
    26    80    79    1
    27    80    84   am
    28    20    19    1
    29    79    82    1
    30    32    33    1
    31    32    35    1
    32    34    33    2
    33    84    85    1
    34    85    88    1
    35    85    86    1
    36    41    40    2
    37    40    39    1
    38    33    38   am
    39     1     2    1
    40    53    54    1
    41    82    83    1
    42    36    35    1
    43    19    18    1
    44    18    13   am
    45    13    12    1
    46    13    14    2
    47    12    11    1
    48    35    37    1
    49    38    39    1
    50     2     5    1
    51     2     3    1
    52    86    87    2
    53    86    89   am
    54    39    42    1
    55    55    54    1
    56    55    56    2
    57    11     9   am
    58    54    57    1
    59     5     6    1
    60    89    90    1
    61     3     4    2
    62     3     7   am
    63    62    63    1
    64    42    44    1
    65    42    43    1
    66    57    58    1
    67    58    59    1
    68    68    67   ar
    69     7     8    1
    70     9    10    2
    71     9     8    1
    72    91    90    1
    73    91    92    2
    74    90    93    1
    75    63    66    1
    76    63    64    1
    77    61    60    1
    78    66    67    1
    79    67    69   ar
    80    59    60    1
    81    70    64   am
    82    70    71    1
    83    64    65    2
    84    73    72    2
    85    72    71    1
    86    71    74    1
    87    74    75    1
    88    75    76    1
    89    75    77    1
