@<TRIPOS>MOLECULE
tmp/2if8A00.pdb
 130 121 0 0 0
SMALL
GASTEIGER

@<TRIPOS>ATOM
      1  N         15.0600   70.7100   39.3160 N.3     4  ILE4       -0.1245
      2  CA        16.0860   69.8350   39.8460 C.3     4  ILE4        0.1561
      3  C         15.4530   69.0920   41.0240 C.2     4  ILE4        0.2260
      4  O         14.6720   69.6730   41.7710 O.2     4  ILE4       -0.2867
      5  CB        17.3230   70.6740   40.2770 C.3     4  ILE4        0.0252
      6  CG1       18.2700   70.8320   39.1050 C.3     4  ILE4        0.0019
      7  CG2       18.0620   70.0790   41.4830 C.3     4  ILE4        0.0019
      8  CD1       19.0800   69.6040   38.7780 C.3     4  ILE4        0.0001
      9  N         16.5090   67.0930   44.3030 N.3     6  LYS6       -0.1245
     10  CA        17.5320   66.7060   45.2580 C.3     6  LYS6        0.1561
     11  C         16.9220   65.7670   46.2790 C.2     6  LYS6        0.2260
     12  O         15.7520   65.9210   46.6190 O.2     6  LYS6       -0.2867
     13  CB        18.0340   67.9490   45.9750 C.3     6  LYS6        0.0271
     14  CG        19.4390   67.8420   46.4810 C.3     6  LYS6        0.0035
     15  CD        19.8610   69.1590   47.0510 C.3     6  LYS6        0.0206
     16  CE        21.3190   69.1320   47.4720 C.3     6  LYS6        0.1093
     17  NZ        21.5100   68.6190   48.8510 N.3     6  LYS6       -0.1314
     18  N         16.9730   66.3800   52.5960 N.3     9  PHE9       -0.1241
     19  CA        17.4430   66.2490   53.9590 C.3     9  PHE9        0.1605
     20  C         16.6270   67.2130   54.7830 C.2     9  PHE9        0.2264
     21  O         16.3970   68.3420   54.3420 O.2     9  PHE9       -0.2867
     22  CB        18.9490   66.4830   54.0490 C.3     9  PHE9        0.0534
     23  CG        19.7340   65.4180   53.3430 C.ar    9  PHE9       -0.0203
     24  CD1       19.8790   64.1510   53.9170 C.ar    9  PHE9       -0.0042
     25  CD2       20.2560   65.6480   52.0650 C.ar    9  PHE9       -0.0042
     26  CE1       20.5650   63.1240   53.2370 C.ar    9  PHE9       -0.0003
     27  CE2       20.9560   64.6400   51.3710 C.ar    9  PHE9       -0.0003
     28  CZ        21.1060   63.3740   51.9590 C.ar    9  PHE9       -0.0000
     29  N         18.6260   79.1020   44.8340 N.3    30  PRO30      -0.2116
     30  CA        17.6240   78.6050   43.8870 C.3    30  PRO30       0.1372
     31  C         16.2180   78.7720   44.4810 C.2    30  PRO30       0.2244
     32  O         16.0540   78.7310   45.6920 O.2    30  PRO30      -0.2868
     33  CB        17.9530   77.1130   43.7690 C.3    30  PRO30       0.0268
     34  CG        19.2970   76.9490   44.3300 C.3    30  PRO30       0.0207
     35  CD        19.5030   78.0230   45.3160 C.3    30  PRO30       0.0892
     36  N         13.7200   72.1460   43.1960 N.3    45  LEU45      -0.1231
     37  CA        14.3390   73.4580   43.0660 C.3    45  LEU45       0.1693
     38  C         14.3710   73.8660   41.6130 C.2    45  LEU45       0.2592
     39  O         14.4210   73.0300   40.7160 O.2    45  LEU45      -0.2718
     40  CB        15.7680   73.4430   43.6160 C.3    45  LEU45       0.0284
     41  CG        16.0060   72.9180   45.0380 C.3    45  LEU45       0.0019
     42  CD1       17.4950   72.8490   45.2650 C.3    45  LEU45       0.0001
     43  CD2       15.3160   73.7810   46.0900 C.3    45  LEU45       0.0001
     44  N         14.3480   75.1680   41.3790 N.am   46  GLU46      -0.1966
     45  CA        14.6370   75.6890   40.0620 C.3    46  GLU46       0.1733
     46  C         16.0220   75.2110   39.6230 C.2    46  GLU46       0.2616
     47  O         16.9420   75.1620   40.4300 O.2    46  GLU46      -0.2715
     48  CB        14.6080   77.2210   40.0660 C.3    46  GLU46       0.0429
     49  CG        15.9830   77.9140   40.1320 C.3    46  GLU46       0.1163
     50  CD        15.8600   79.4270   39.9600 C.2    46  GLU46       0.3649
     51  OE1       15.5580   80.1050   40.9840 O.co2  46  GLU46      -0.2457
     52  OE2       16.0650   79.9340   38.8160 O.co2  46  GLU46      -0.2457
     53  N         16.1340   74.8630   38.3480 N.am   47  ASN47      -0.1958
     54  CA        17.3870   74.4980   37.7220 C.3    47  ASN47       0.1819
     55  C         18.1370   75.7440   37.3120 C.2    47  ASN47       0.2621
     56  O         17.7270   76.4480   36.3980 O.2    47  ASN47      -0.2715
     57  CB        17.1110   73.6370   36.5010 C.3    47  ASN47       0.1195
     58  CG        18.3600   72.9790   35.9270 C.2    47  ASN47       0.2630
     59  OD1       19.4820   73.1770   36.3930 O.2    47  ASN47      -0.2716
     60  ND2       18.1550   72.2090   34.8740 N.am   47  ASN47      -0.0877
     61  N         19.2400   76.0050   38.0110 N.am   48  LEU48      -0.1963
     62  CA        20.0970   77.1500   37.7440 C.3    48  LEU48       0.1728
     63  C         20.7500   77.1330   36.3460 C.2    48  LEU48       0.2616
     64  O         21.1060   78.1990   35.8190 O.2    48  LEU48      -0.2715
     65  CB        21.1370   77.2630   38.8440 C.3    48  LEU48       0.0311
     66  CG        20.6130   77.5290   40.2610 C.3    48  LEU48       0.0022
     67  CD1       21.7000   77.2780   41.3380 C.3    48  LEU48       0.0001
     68  CD2       19.9900   78.9410   40.3920 C.3    48  LEU48       0.0001
     69  N         20.8750   75.9330   35.7620 N.am   49  LEU49      -0.1977
     70  CA        21.4170   75.7160   34.4010 C.3    49  LEU49       0.1596
     71  C         20.4330   76.0130   33.2610 C.2    49  LEU49       0.2287
     72  O         20.8340   76.1650   32.1200 O.2    49  LEU49      -0.2864
     73  CB        21.8980   74.2780   34.2420 C.3    49  LEU49       0.0297
     74  CG        22.9840   73.7740   35.2060 C.3    49  LEU49       0.0022
     75  CD1       23.3160   72.3240   34.8980 C.3    49  LEU49       0.0001
     76  CD2       24.2200   74.6480   35.1160 C.3    49  LEU49       0.0001
     77  N         30.5650   75.5790   34.7080 N.3    57  ILE57      -0.1245
     78  CA        30.1440   75.5620   36.1180 C.3    57  ILE57       0.1561
     79  C         31.3000   75.3820   37.1120 C.2    57  ILE57       0.2260
     80  O         32.1350   74.5000   36.9210 O.2    57  ILE57      -0.2867
     81  CB        29.1200   74.4120   36.3800 C.3    57  ILE57       0.0252
     82  CG1       27.9590   74.4880   35.3790 C.3    57  ILE57       0.0019
     83  CG2       28.6430   74.4310   37.8490 C.3    57  ILE57       0.0019
     84  CD1       27.4190   73.1670   34.9660 C.3    57  ILE57       0.0001
     85  N         32.0080   75.1660   41.3750 N.3    59  ASP59      -0.1239
     86  CA        31.5010   75.0230   42.7330 C.3    59  ASP59       0.1674
     87  C         32.5990   75.3400   43.7640 C.2    59  ASP59       0.2266
     88  O         33.5880   74.6280   43.8860 O.2    59  ASP59      -0.2867
     89  CB        30.9470   73.6060   42.9300 C.3    59  ASP59       0.1410
     90  CG        30.1560   73.4630   44.1990 C.2    59  ASP59       0.3668
     91  OD1       30.6510   73.8630   45.2590 O.co2  59  ASP59      -0.2456
     92  OD2       29.0230   72.9470   44.1450 O.co2  59  ASP59      -0.2456
     93  N         33.1450   75.7230   47.8070 N.3    61  LYS61      -0.1245
     94  CA        32.6750   75.5990   49.2070 C.3    61  LYS61       0.1561
     95  C         33.1310   76.7870   50.0490 C.2    61  LYS61       0.2260
     96  O         34.3310   77.1600   50.0320 O.2    61  LYS61      -0.2867
     97  CB        33.1920   74.3200   49.8540 C.3    61  LYS61       0.0271
     98  CG        32.5940   73.0700   49.2720 C.3    61  LYS61       0.0035
     99  CD        31.6740   72.3650   50.2590 C.3    61  LYS61       0.0206
    100  CE        30.5000   71.6720   49.5400 C.3    61  LYS61       0.1093
    101  NZ        29.1740   72.4700   49.4970 N.3    61  LYS61      -0.1314
    102  N         27.9010   78.8200   43.4850 N.3   188  LEU188     -0.1245
    103  CA        27.8460   78.1750   42.2000 C.3   188  LEU188      0.1561
    104  C         27.9680   79.2500   41.1590 C.2   188  LEU188      0.2260
    105  O         27.0930   80.1260   41.0430 O.2   188  LEU188     -0.2867
    106  CB        26.5350   77.4210   42.0180 C.3   188  LEU188      0.0270
    107  CG        26.4980   76.4860   40.8020 C.3   188  LEU188      0.0019
    108  CD1       27.4140   75.2260   40.9680 C.3   188  LEU188      0.0001
    109  CD2       25.0770   76.0780   40.5590 C.3   188  LEU188      0.0001
    110  N         24.1400   77.6530   47.1760 N.3   222  ILE222     -0.1231
    111  CA        23.4470   76.3690   47.2000 C.3   222  ILE222      0.1692
    112  C         23.8780   75.5030   48.3750 C.2   222  ILE222      0.2592
    113  O         24.9040   75.7680   49.0260 O.2   222  ILE222     -0.2718
    114  CB        23.6420   75.5750   45.8710 C.3   222  ILE222      0.0266
    115  CG1       25.1190   75.2410   45.6240 C.3   222  ILE222      0.0019
    116  CG2       23.0630   76.3520   44.6780 C.3   222  ILE222      0.0020
    117  CD1       25.3220   74.3250   44.5150 C.3   222  ILE222      0.0001
    118  N         23.0800   74.4760   48.6640 N.am  223  ASP223     -0.1974
    119  CA        23.5080   73.3810   49.5500 C.3   223  ASP223      0.1709
    120  C         23.3830   73.6850   51.0500 C.2   223  ASP223      0.2293
    121  O         24.3410   74.1140   51.7080 O.2   223  ASP223     -0.2864
    122  CB        24.9340   73.0090   49.1910 C.3   223  ASP223      0.1436
    123  CG        25.3620   71.6810   49.7530 C.2   223  ASP223      0.3671
    124  OD1       24.6960   71.1340   50.7120 O.co2 223  ASP223     -0.2456
    125  OD2       26.4270   71.2080   49.2340 O.co2 223  ASP223     -0.2456
    126  N         22.1840   71.6990   53.7420 N.3   225  ALA225     -0.1245
    127  CA        22.0050   70.5630   54.6510 C.3   225  ALA225      0.1562
    128  C         22.6140   70.8140   56.0280 C.2   225  ALA225      0.2260
    129  O         22.2220   70.1750   57.0020 O.2   225  ALA225     -0.2867
    130  CB        22.5450   69.2890   54.0250 C.3   225  ALA225      0.0290
@<TRIPOS>BOND
     1    72    71    2
     2    71    70    1
     3    73    70    1
     4    73    74    1
     5    70    69    1
     6    77    78    1
     7    60    58   am
     8    75    74    1
     9    84    82    1
    10    76    74    1
    11    82    81    1
    12    69    63   am
    13    64    63    2
    14    58    59    2
    15    58    57    1
    16    78    81    1
    17    78    79    1
    18    63    62    1
    19    81    83    1
    20    56    55    2
    21    57    54    1
    22    80    79    2
    23    55    54    1
    24    55    61   am
    25    54    53    1
    26    62    61    1
    27    62    65    1
    28    53    46   am
    29     8     6    1
    30    52    50   ar
    31    65    66    1
    32     6     5    1
    33     1     2    1
    34    46    45    1
    35    46    47    2
    36     2     5    1
    37     2     3    1
    38    50    49    1
    39    50    51   ar
    40    45    48    1
    41    45    44    1
    42    48    49    1
    43    66    68    1
    44    66    67    1
    45     5     7    1
    46   109   107    1
    47    39    38    2
    48   107   108    1
    49   107   106    1
    50     3     4    2
    51   105   104    2
    52   104   103    1
    53    85    86    1
    54    44    38   am
    55    38    37    1
    56   106   103    1
    57   103   102    1
    58    86    89    1
    59    86    87    1
    60    89    90    1
    61    37    36    1
    62    37    40    1
    63    40    41    1
    64    87    88    2
    65    33    30    1
    66    33    34    1
    67    30    31    1
    68    30    29    1
    69    92    90   ar
    70    90    91   ar
    71     9    10    1
    72    34    35    1
    73    31    32    2
    74   117   115    1
    75   116   114    1
    76    29    35    1
    77    41    42    1
    78    41    43    1
    79    10    13    1
    80    10    11    1
    81   115   114    1
    82   114   111    1
    83    13    14    1
    84    11    12    2
    85    14    15    1
    86    15    16    1
    87   110   111    1
    88   111   112    1
    89    16    17    1
    90    93    94    1
    91   112   118   am
    92   112   113    2
    93   118   119    1
    94   122   119    1
    95   122   123    1
    96    94    97    1
    97    94    95    1
    98   125   123   ar
    99    98    97    1
   100    98    99    1
   101   101   100    1
   102   100    99    1
   103   119   120    1
   104   123   124   ar
   105    96    95    2
   106   120   121    2
   107    27    28   ar
   108    27    25   ar
   109    28    26   ar
   110    25    23   ar
   111    18    19    1
   112    26    24   ar
   113    23    24   ar
   114    23    22    1
   115   126   127    1
   116    19    22    1
   117    19    20    1
   118   130   127    1
   119    21    20    2
   120   127   128    1
   121   128   129    2
