@<TRIPOS>MOLECULE
tmp/2ifaC00.pdb
 117 115 0 0 0
SMALL
GASTEIGER

@<TRIPOS>ATOM
      1  N         24.7660   42.7970  -41.0480 N.3    10  ARG10      -0.1231
      2  CA        25.7430   43.6660  -40.3960 C.3    10  ARG10       0.1694
      3  C         27.1440   43.5480  -40.9910 C.2    10  ARG10       0.2592
      4  O         27.7480   42.4710  -41.0150 O.2    10  ARG10      -0.2718
      5  CB        25.8160   43.3630  -38.9050 C.3    10  ARG10       0.0321
      6  CG        26.8370   44.2270  -38.1790 C.3    10  ARG10       0.0489
      7  CD        27.6880   43.3710  -37.2800 C.3    10  ARG10       0.2205
      8  NE        28.4630   42.3790  -38.0250 N.pl3  10  ARG10      -0.0865
      9  CZ        29.5320   42.6620  -38.7600 C.cat  10  ARG10       0.5346
     10  NH1       29.9620   43.9050  -38.8630 N.pl3  10  ARG10       0.1354
     11  NH2       30.1910   41.6880  -39.3710 N.pl3  10  ARG10       0.1354
     12  N         27.6710   44.6640  -41.4660 N.am   11  ARG11      -0.1966
     13  CA        28.9910   44.6660  -42.0550 C.3    11  ARG11       0.1729
     14  C         29.6150   46.0260  -41.8130 C.2    11  ARG11       0.2616
     15  O         28.9260   46.9790  -41.4380 O.2    11  ARG11      -0.2715
     16  CB        28.8910   44.4180  -43.5650 C.3    11  ARG11       0.0348
     17  CG        28.4680   42.9980  -43.9890 C.3    11  ARG11       0.0492
     18  CD        29.5420   41.9760  -43.6500 C.3    11  ARG11       0.2205
     19  NE        30.7940   42.3310  -44.3060 N.pl3  11  ARG11      -0.0865
     20  CZ        31.0520   42.1120  -45.5920 C.cat  11  ARG11       0.5346
     21  NH1       30.1390   41.5230  -46.3600 N.pl3  11  ARG11       0.1354
     22  NH2       32.2030   42.5110  -46.1180 N.pl3  11  ARG11       0.1354
     23  N         30.9210   46.1150  -42.0350 N.am   12  SER12      -0.1950
     24  CA        31.6290   47.3770  -41.8850 C.3    12  SER12       0.1924
     25  C         31.3410   48.1880  -43.1420 C.2    12  SER12       0.2314
     26  O         31.6400   47.7490  -44.2510 O.2    12  SER12      -0.2863
     27  CB        33.1310   47.1410  -41.7740 C.3    12  SER12       0.2116
     28  OG        33.4330   46.3250  -40.6600 O.3    12  SER12      -0.2180
     29  N         32.0970   51.6530  -45.0860 N.3    14  TYR14      -0.1241
     30  CA        33.0240   52.7600  -45.2120 C.3    14  TYR14       0.1605
     31  C         32.4930   53.8750  -46.1220 C.2    14  TYR14       0.2264
     32  O         33.1660   54.8760  -46.3400 O.2    14  TYR14      -0.2867
     33  CB        34.3630   52.2260  -45.7200 C.3    14  TYR14       0.0534
     34  CG        35.0060   51.2470  -44.7520 C.ar   14  TYR14      -0.0201
     35  CD1       35.6180   51.7020  -43.5810 C.ar   14  TYR14      -0.0009
     36  CD2       34.9560   49.8660  -44.9760 C.ar   14  TYR14      -0.0009
     37  CE1       36.1570   50.8180  -42.6610 C.ar   14  TYR14       0.0417
     38  CE2       35.4910   48.9660  -44.0560 C.ar   14  TYR14       0.0417
     39  CZ        36.0900   49.4510  -42.8960 C.ar   14  TYR14       0.1957
     40  OH        36.6070   48.5860  -41.9470 O.3    14  TYR14      -0.2866
     41  N         33.1780   45.3890  -23.6810 N.3   126  HIS126     -0.1226
     42  CA        33.2020   46.4400  -24.7060 C.3   126  HIS126      0.1752
     43  C         32.8490   45.8790  -26.0880 C.2   126  HIS126      0.2596
     44  O         32.0400   46.4700  -26.8220 O.2   126  HIS126     -0.2718
     45  CB        34.5770   47.1280  -24.7650 C.3   126  HIS126      0.0759
     46  CG        34.7880   47.9670  -25.9960 C.ar  126  HIS126      0.0818
     47  ND1       35.5560   47.5420  -27.0650 N.ar  126  HIS126     -0.2268
     48  CD2       34.2970   49.1820  -26.3450 C.ar  126  HIS126      0.1154
     49  CE1       35.5270   48.4580  -28.0160 C.ar  126  HIS126      0.1986
     50  NE2       34.7700   49.4610  -27.6050 N.ar  126  HIS126     -0.2212
     51  N         33.4510   44.7400  -26.4340 N.am  127  GLY127     -0.1957
     52  CA        33.1670   44.1240  -27.7180 C.3   127  GLY127      0.1869
     53  C         31.6850   43.8420  -27.8310 C.2   127  GLY127      0.2309
     54  O         31.0780   44.0400  -28.8880 O.2   127  GLY127     -0.2863
     55  N         29.8200   47.0290  -28.3970 N.3   130  LEU130     -0.1245
     56  CA        30.0710   47.3850  -29.7930 C.3   130  LEU130      0.1561
     57  C         29.1800   46.5580  -30.7320 C.2   130  LEU130      0.2260
     58  O         28.4500   47.1030  -31.5650 O.2   130  LEU130     -0.2867
     59  CB        31.5370   47.1390  -30.1270 C.3   130  LEU130      0.0270
     60  CG        31.9640   47.2500  -31.5980 C.3   130  LEU130      0.0019
     61  CD1       31.9100   48.7050  -32.0680 C.3   130  LEU130      0.0001
     62  CD2       33.3720   46.6720  -31.7450 C.3   130  LEU130      0.0001
     63  N         26.1760   47.7400  -33.2400 N.3   134  TRP134     -0.1241
     64  CA        26.3870   47.4120  -34.6430 C.3   134  TRP134      0.1605
     65  C         25.1610   46.6720  -35.2030 C.2   134  TRP134      0.2264
     66  O         24.7350   46.9140  -36.3400 O.2   134  TRP134     -0.2867
     67  CB        27.6400   46.5240  -34.7760 C.3   134  TRP134      0.0550
     68  CG        28.4330   46.7680  -36.0160 C.ar  134  TRP134      0.0003
     69  CD1       27.9700   47.2660  -37.2060 C.ar  134  TRP134      0.0946
     70  CD2       29.8320   46.5180  -36.2020 C.ar  134  TRP134      0.0152
     71  NE1       28.9930   47.3420  -38.1180 N.ar  134  TRP134     -0.2442
     72  CE2       30.1480   46.8910  -37.5310 C.ar  134  TRP134      0.0810
     73  CE3       30.8520   46.0170  -35.3740 C.ar  134  TRP134      0.0012
     74  CZ2       31.4410   46.7830  -38.0530 C.ar  134  TRP134      0.0191
     75  CZ3       32.1430   45.9130  -35.8910 C.ar  134  TRP134      0.0001
     76  CH2       32.4250   46.2950  -37.2190 C.ar  134  TRP134      0.0015
     77  N         31.3810   51.8940  -39.0030 N.3   144  SER144     -0.1202
     78  CA        32.6230   51.1370  -38.9420 C.3   144  SER144      0.2020
     79  C         33.1710   51.3880  -37.5360 C.2   144  SER144      0.2619
     80  O         32.6340   52.2380  -36.8090 O.2   144  SER144     -0.2717
     81  CB        33.6160   51.6080  -40.0030 C.3   144  SER144      0.2103
     82  OG        34.0810   52.9200  -39.7450 O.3   144  SER144     -0.2182
     83  N         34.2030   50.6350  -37.1520 N.am  145  VAL145     -0.1965
     84  CA        34.8300   50.7960  -35.8350 C.3   145  VAL145      0.1727
     85  C         36.2550   51.2890  -36.0610 C.2   145  VAL145      0.2616
     86  O         37.0130   50.6790  -36.7990 O.2   145  VAL145     -0.2715
     87  CB        34.9300   49.4570  -35.0390 C.3   145  VAL145      0.0290
     88  CG1       35.2980   49.7410  -33.5820 C.3   145  VAL145      0.0023
     89  CG2       33.6290   48.7040  -35.1050 C.3   145  VAL145      0.0023
     90  N         36.6150   52.3950  -35.4270 N.am  146  GLN146     -0.1963
     91  CA        37.9600   52.9370  -35.5920 C.3   146  GLN146      0.1733
     92  C         38.7070   52.9450  -34.2720 C.2   146  GLN146      0.2616
     93  O         38.1170   52.7830  -33.2150 O.2   146  GLN146     -0.2715
     94  CB        37.9020   54.3620  -36.1300 C.3   146  GLN146      0.0408
     95  CG        37.2100   54.4790  -37.4620 C.3   146  GLN146      0.0908
     96  CD        37.7560   53.4940  -38.4720 C.2   146  GLN146      0.2608
     97  OE1       38.9660   53.4380  -38.7140 O.2   146  GLN146     -0.2717
     98  NE2       36.8660   52.7070  -39.0700 N.am  146  GLN146     -0.0878
     99  N         40.0140   53.1480  -34.3520 N.am  147  HIS147     -0.1973
    100  CA        40.8270   53.2040  -33.1510 C.3   147  HIS147      0.1656
    101  C         41.9260   54.2320  -33.2600 C.2   147  HIS147      0.2291
    102  O         43.0430   53.9140  -33.6430 O.2   147  HIS147     -0.2864
    103  CB        41.4170   51.8250  -32.8290 C.3   147  HIS147      0.0771
    104  CG        40.3760   50.8070  -32.4870 C.ar  147  HIS147      0.0820
    105  ND1       39.8140   49.9750  -33.4300 N.ar  147  HIS147     -0.2267
    106  CD2       39.7300   50.5510  -31.3240 C.ar  147  HIS147      0.1154
    107  CE1       38.8650   49.2510  -32.8620 C.ar  147  HIS147      0.1986
    108  NE2       38.7940   49.5810  -31.5850 N.ar  147  HIS147     -0.2212
    109  N         33.7530   39.0020  -47.9570 N.3   183  LYS183     -0.1245
    110  CA        34.4940   38.7470  -46.7370 C.3   183  LYS183      0.1561
    111  C         35.0050   37.3150  -46.7710 C.2   183  LYS183      0.2260
    112  O         34.2660   36.3950  -47.1030 O.2   183  LYS183     -0.2867
    113  CB        33.5910   38.9190  -45.5180 C.3   183  LYS183      0.0271
    114  CG        34.3270   38.7430  -44.1820 C.3   183  LYS183      0.0035
    115  CD        33.4070   38.2630  -43.0590 C.3   183  LYS183      0.0206
    116  CE        32.2100   39.1760  -42.8530 C.3   183  LYS183      0.1093
    117  NZ        31.4130   38.8140  -41.6380 N.3   183  LYS183     -0.1314
@<TRIPOS>BOND
     1   109   110    1
     2   112   111    2
     3   111   110    1
     4   110   113    1
     5    21    20    1
     6    32    31    2
     7    31    30    1
     8    22    20    1
     9    33    30    1
    10    33    34    1
    11    20    19    2
    12   113   114    1
    13    30    29    1
    14    36    34   ar
    15    36    38   ar
    16    34    35   ar
    17    19    18    1
    18    26    25    2
    19   114   115    1
    20    38    39   ar
    21    17    18    1
    22    17    16    1
    23    35    37   ar
    24    16    13    1
    25    25    24    1
    26   115   116    1
    27    39    37   ar
    28    39    40    1
    29   116   117    1
    30    13    14    1
    31    13    12    1
    32    23    24    1
    33    23    14   am
    34    24    27    1
    35    14    15    2
    36    27    28    1
    37    12     3   am
    38     1     2    1
    39     4     3    2
    40     3     2    1
    41     2     5    1
    42    81    82    1
    43    81    78    1
    44    11     9    1
    45    98    96   am
    46    77    78    1
    47    78    79    1
    48     5     6    1
    49    10     9    1
    50     9     8    2
    51    97    96    2
    52    96    95    1
    53     6     7    1
    54    71    72   ar
    55    71    69   ar
    56    74    72   ar
    57    74    76   ar
    58     8     7    1
    59    79    83   am
    60    79    80    2
    61    72    70   ar
    62    95    94    1
    63    76    75   ar
    64    69    68   ar
    65    83    84    1
    66    86    85    2
    67    66    65    2
    68    70    68   ar
    69    70    73   ar
    70    94    91    1
    71    85    84    1
    72    85    90   am
    73    68    67    1
    74    75    73   ar
    75    84    87    1
    76    91    90    1
    77    91    92    1
    78    65    64    1
    79    89    87    1
    80    87    88    1
    81    67    64    1
    82    64    63    1
    83    99    92   am
    84    99   100    1
    85    92    93    2
    86   102   101    2
    87   105   107   ar
    88   105   104   ar
    89   101   100    1
    90   100   103    1
    91   107   108   ar
    92   103   104    1
    93   104   106   ar
    94    61    60    1
    95    62    60    1
    96    60    59    1
    97   108   106   ar
    98    58    57    2
    99    57    56    1
   100    59    56    1
   101    56    55    1
   102    54    53    2
   103    49    50   ar
   104    49    47   ar
   105    53    52    1
   106    52    51    1
   107    50    48   ar
   108    47    46   ar
   109    44    43    2
   110    51    43   am
   111    48    46   ar
   112    43    42    1
   113    46    45    1
   114    45    42    1
   115    42    41    1
