@<TRIPOS>MOLECULE
tmp/2ifaC01.pdb
 82 81 0 0 0
SMALL
GASTEIGER

@<TRIPOS>ATOM
      1  N         21.2990   46.8110  -22.5830 N.3    37  GLN37      -0.1245
      2  CA        20.8910   45.4200  -22.7350 C.3    37  GLN37       0.1566
      3  C         22.0940   44.5070  -22.9560 C.2    37  GLN37       0.2260
      4  O         21.9990   43.2890  -22.8120 O.2    37  GLN37      -0.2867
      5  CB        19.9280   45.3160  -23.9180 C.3    37  GLN37       0.0367
      6  CG        18.6080   44.6140  -23.6210 C.3    37  GLN37       0.0905
      7  CD        18.1380   44.8330  -22.2050 C.2    37  GLN37       0.2608
      8  OE1       18.5860   44.1490  -21.2820 O.2    37  GLN37      -0.2717
      9  NE2       17.2410   45.8000  -22.0170 N.am   37  GLN37      -0.0878
     10  N         25.0810   42.5440  -21.9590 N.3    39  PRO39      -0.2102
     11  CA        25.5610   41.9540  -20.6980 C.3    39  PRO39       0.1504
     12  C         27.0210   42.2420  -20.3290 C.2    39  PRO39       0.2576
     13  O         27.8640   42.3940  -21.1990 O.2    39  PRO39      -0.2718
     14  CB        25.3080   40.4580  -20.9070 C.3    39  PRO39       0.0282
     15  CG        25.5980   40.2990  -22.3630 C.3    39  PRO39       0.0208
     16  CD        24.8790   41.4990  -22.9770 C.3    39  PRO39       0.0893
     17  N         27.3060   42.3110  -19.0290 N.am   40  SER40      -0.1938
     18  CA        28.6710   42.5560  -18.5380 C.3    40  SER40       0.2055
     19  C         28.9570   41.6920  -17.3150 C.2    40  SER40       0.2643
     20  O         28.0430   41.2860  -16.5950 O.2    40  SER40      -0.2714
     21  CB        28.8780   44.0280  -18.1620 C.3    40  SER40       0.2130
     22  OG        28.0010   44.4000  -17.1130 O.3    40  SER40      -0.2179
     23  N         30.2330   41.4100  -17.0850 N.am   41  ALA41      -0.1963
     24  CA        30.6240   40.5850  -15.9500 C.3    41  ALA41       0.1728
     25  C         30.0420   41.1170  -14.6500 C.2    41  ALA41       0.2616
     26  O         30.2620   42.2760  -14.2780 O.2    41  ALA41      -0.2715
     27  CB        32.1370   40.5160  -15.8530 C.3    41  ALA41       0.0334
     28  N         29.2860   40.2630  -13.9690 N.am   42  PHE42      -0.1960
     29  CA        28.6690   40.6160  -12.6950 C.3    42  PHE42       0.1771
     30  C         27.7890   41.8580  -12.8070 C.2    42  PHE42       0.2619
     31  O         27.5260   42.5310  -11.8040 O.2    42  PHE42      -0.2715
     32  CB        29.7540   40.8460  -11.6320 C.3    42  PHE42       0.0574
     33  CG        30.5290   39.6130  -11.2830 C.ar   42  PHE42      -0.0200
     34  CD1       31.2170   38.8940  -12.2660 C.ar   42  PHE42      -0.0042
     35  CD2       30.5720   39.1560   -9.9710 C.ar   42  PHE42      -0.0042
     36  CE1       31.9320   37.7390  -11.9450 C.ar   42  PHE42      -0.0003
     37  CE2       31.2860   38.0020   -9.6410 C.ar   42  PHE42      -0.0003
     38  CZ        31.9640   37.2940  -10.6300 C.ar   42  PHE42      -0.0000
     39  N         27.3330   42.1490  -14.0260 N.am   43  ASN43      -0.1972
     40  CA        26.4880   43.3090  -14.2720 C.3    43  ASN43       0.1688
     41  C         27.2290   44.5450  -13.7850 C.2    43  ASN43       0.2292
     42  O         26.6260   45.4860  -13.2800 O.2    43  ASN43      -0.2864
     43  CB        25.1510   43.1500  -13.5390 C.3    43  ASN43       0.1181
     44  CG        24.1040   44.1610  -13.9930 C.2    43  ASN43       0.2629
     45  OD1       24.1440   44.6560  -15.1260 O.2    43  ASN43      -0.2716
     46  ND2       23.1470   44.4560  -13.1130 N.am   43  ASN43      -0.0877
     47  N         37.6140   40.8270  -18.9230 N.3   121  TRP121     -0.1241
     48  CA        36.1590   40.8550  -18.9490 C.3   121  TRP121      0.1605
     49  C         35.6390   42.2140  -19.3580 C.2   121  TRP121      0.2264
     50  O         34.5520   42.3150  -19.9160 O.2   121  TRP121     -0.2867
     51  CB        35.5710   40.5000  -17.5870 C.3   121  TRP121      0.0550
     52  CG        35.6220   39.0430  -17.2570 C.ar  121  TRP121      0.0003
     53  CD1       35.7450   38.0070  -18.1390 C.ar  121  TRP121      0.0946
     54  CD2       35.4970   38.4510  -15.9550 C.ar  121  TRP121      0.0152
     55  NE1       35.7060   36.8080  -17.4700 N.ar  121  TRP121     -0.2442
     56  CE2       35.5540   37.0490  -16.1300 C.ar  121  TRP121      0.0810
     57  CE3       35.3430   38.9680  -14.6600 C.ar  121  TRP121      0.0012
     58  CZ2       35.4640   36.1510  -15.0550 C.ar  121  TRP121      0.0191
     59  CZ3       35.2540   38.0770  -13.5920 C.ar  121  TRP121      0.0001
     60  CH2       35.3150   36.6810  -13.7980 C.ar  121  TRP121      0.0015
     61  N         36.0030   42.3110  -23.0420 N.3   124  GLN124     -0.1231
     62  CA        34.9290   41.4880  -23.6020 C.3   124  GLN124      0.1698
     63  C         33.5840   42.2220  -23.5130 C.2   124  GLN124      0.2592
     64  O         32.7600   42.1570  -24.4410 O.2   124  GLN124     -0.2718
     65  CB        34.8860   40.1220  -22.8850 C.3   124  GLN124      0.0381
     66  CG        36.1940   39.3170  -23.0620 C.3   124  GLN124      0.0905
     67  CD        36.2950   38.0910  -22.1520 C.2   124  GLN124      0.2608
     68  OE1       37.3520   37.4540  -22.0760 O.2   124  GLN124     -0.2717
     69  NE2       35.2090   37.7550  -21.4660 N.am  124  GLN124     -0.0878
     70  N         33.3780   42.9410  -22.4100 N.am  125  ALA125     -0.1980
     71  CA        32.1510   43.7120  -22.2240 C.3   125  ALA125      0.1597
     72  C         32.0500   44.8000  -23.2970 C.2   125  ALA125      0.2287
     73  O         30.9640   45.1030  -23.7730 O.2   125  ALA125     -0.2864
     74  CB        32.1280   44.3390  -20.8330 C.3   125  ALA125      0.0319
     75  N         31.1100   43.3800  -26.7270 N.3   128  ILE128     -0.1245
     76  CA        29.6930   43.0530  -26.6540 C.3   128  ILE128      0.1561
     77  C         28.8130   44.2890  -26.8340 C.2   128  ILE128      0.2260
     78  O         27.7530   44.2240  -27.4630 O.2   128  ILE128     -0.2867
     79  CB        29.3670   42.3920  -25.3060 C.3   128  ILE128      0.0252
     80  CG1       30.0830   41.0390  -25.2340 C.3   128  ILE128      0.0019
     81  CG2       27.8450   42.2970  -25.1190 C.3   128  ILE128      0.0019
     82  CD1       29.8490   40.2620  -23.9520 C.3   128  ILE128      0.0001
@<TRIPOS>BOND
     1    78    77    2
     2    77    76    1
     3    75    76    1
     4    76    79    1
     5    79    80    1
     6    79    81    1
     7    80    82    1
     8    64    63    2
     9     5     6    1
    10     5     2    1
    11    73    72    2
    12     6     7    1
    13    62    63    1
    14    62    61    1
    15    62    65    1
    16    63    70   am
    17    72    71    1
    18    66    65    1
    19    66    67    1
    20    16    15    1
    21    16    10    1
    22     3     4    2
    23     3     2    1
    24     2     1    1
    25    70    71    1
    26    15    14    1
    27    71    74    1
    28     7     9   am
    29     7     8    2
    30    67    68    2
    31    67    69   am
    32    10    11    1
    33    13    12    2
    34    14    11    1
    35    11    12    1
    36    12    17   am
    37    50    49    2
    38    49    48    1
    39    17    18    1
    40    48    47    1
    41    48    51    1
    42    18    21    1
    43    18    19    1
    44    21    22    1
    45    53    55   ar
    46    53    52   ar
    47    51    52    1
    48    55    56   ar
    49    19    23   am
    50    19    20    2
    51    52    54   ar
    52    23    24    1
    53    56    54   ar
    54    56    58   ar
    55    54    57   ar
    56    24    27    1
    57    24    25    1
    58    45    44    2
    59    58    60   ar
    60    57    59   ar
    61    25    26    2
    62    25    28   am
    63    40    39    1
    64    40    41    1
    65    40    43    1
    66    39    30   am
    67    44    43    1
    68    44    46   am
    69    28    29    1
    70    60    59   ar
    71    41    42    2
    72    30    29    1
    73    30    31    2
    74    29    32    1
    75    34    36   ar
    76    34    33   ar
    77    36    38   ar
    78    32    33    1
    79    33    35   ar
    80    38    37   ar
    81    35    37   ar
