@<TRIPOS>MOLECULE
tmp/2ifcC00.pdb
 108 104 0 0 0
SMALL
GASTEIGER

@<TRIPOS>ATOM
      1  N         -3.2400  -55.3470  -85.2290 N.3    21  ILE21      -0.1245
      2  CA        -3.9430  -56.0580  -86.2900 C.3    21  ILE21       0.1561
      3  C         -4.5340  -57.3270  -85.6350 C.2    21  ILE21       0.2260
      4  O         -3.8300  -58.0280  -84.9380 O.2    21  ILE21      -0.2867
      5  CB        -2.9890  -56.4620  -87.4280 C.3    21  ILE21       0.0252
      6  CG1       -2.1650  -55.2330  -87.9260 C.3    21  ILE21       0.0019
      7  CG2       -3.7580  -57.1660  -88.5670 C.3    21  ILE21       0.0019
      8  CD1       -1.0010  -55.6060  -88.8720 C.3    21  ILE21       0.0001
      9  N          1.1220  -50.4930  -90.9330 N.3   185  HIS185     -0.1241
     10  CA         0.5900  -51.8330  -90.6800 C.3   185  HIS185      0.1621
     11  C          1.4810  -52.6720  -89.7640 C.2   185  HIS185      0.2264
     12  O          1.6740  -53.8810  -90.0250 O.2   185  HIS185     -0.2867
     13  CB         0.3200  -52.5360  -92.0230 C.3   185  HIS185      0.0745
     14  CG        -0.8680  -53.4620  -92.0140 C.ar  185  HIS185      0.0817
     15  ND1       -0.7770  -54.7710  -92.4840 N.ar  185  HIS185     -0.2268
     16  CD2       -2.1600  -53.2730  -91.6630 C.ar  185  HIS185      0.1154
     17  CE1       -1.9710  -55.3340  -92.3960 C.ar  185  HIS185      0.1986
     18  NE2       -2.8290  -54.4540  -91.9100 N.ar  185  HIS185     -0.2212
     19  N          5.6120  -54.7970  -91.1310 N.3   188  PRO188     -0.2102
     20  CA         5.9030  -55.4650  -92.4140 C.3   188  PRO188      0.1504
     21  C          7.3660  -55.3890  -92.8450 C.2   188  PRO188      0.2575
     22  O          8.1690  -54.7620  -92.1570 O.2   188  PRO188     -0.2718
     23  CB         5.0320  -54.6870  -93.4280 C.3   188  PRO188      0.0282
     24  CG         4.9500  -53.3370  -92.7700 C.3   188  PRO188      0.0208
     25  CD         4.8740  -53.5440  -91.3370 C.3   188  PRO188      0.0893
     26  N          7.7200  -55.9890  -93.9990 N.am  189  ALA189     -0.1980
     27  CA         9.1180  -56.0430  -94.4220 C.3   189  ALA189      0.1597
     28  C          9.7780  -54.6300  -94.5480 C.2   189  ALA189      0.2287
     29  O         10.9170  -54.4460  -94.1180 O.2   189  ALA189     -0.2864
     30  CB         9.2600  -56.8420  -95.7280 C.3   189  ALA189      0.0319
     31  N          5.9760  -57.4310 -101.6700 N.3   220  HIS220     -0.1241
     32  CA         5.5210  -56.3940 -100.7860 C.3   220  HIS220      0.1621
     33  C          4.8700  -55.2800 -101.6430 C.2   220  HIS220      0.2264
     34  O          3.6810  -55.1040 -101.5470 O.2   220  HIS220     -0.2867
     35  CB         6.6970  -55.9020  -99.9440 C.3   220  HIS220      0.0745
     36  CG         6.3350  -55.0090  -98.7710 C.ar  220  HIS220      0.0817
     37  ND1        5.0570  -54.7560  -98.3230 N.ar  220  HIS220     -0.2268
     38  CD2        7.1570  -54.2720  -97.9750 C.ar  220  HIS220      0.1154
     39  CE1        5.1020  -53.9210  -97.2880 C.ar  220  HIS220      0.1986
     40  NE2        6.3660  -53.6230  -97.0640 N.ar  220  HIS220     -0.2212
     41  N         -3.2150  -63.0800  -97.2480 N.3   260  HIS260     -0.1226
     42  CA        -2.4280  -62.2210  -96.4230 C.3   260  HIS260      0.1752
     43  C         -1.8560  -63.0880  -95.3100 C.2   260  HIS260      0.2596
     44  O         -2.5380  -64.0040  -94.7830 O.2   260  HIS260     -0.2718
     45  CB        -3.3090  -61.1210  -95.8450 C.3   260  HIS260      0.0759
     46  CG        -2.5230  -59.9550  -95.3300 C.ar  260  HIS260      0.0818
     47  ND1       -1.9310  -59.9510  -94.0910 N.ar  260  HIS260     -0.2268
     48  CD2       -2.2070  -58.7700  -95.9040 C.ar  260  HIS260      0.1154
     49  CE1       -1.2990  -58.8050  -93.9090 C.ar  260  HIS260      0.1986
     50  NE2       -1.4430  -58.0770  -94.9980 N.ar  260  HIS260     -0.2212
     51  N         -0.6070  -62.8220  -94.9530 N.am  261  ARG261     -0.1966
     52  CA        -0.0100  -63.6410  -93.8950 C.3   261  ARG261      0.1729
     53  C         -0.3280  -63.2400  -92.4550 C.2   261  ARG261      0.2616
     54  O          0.0700  -63.9360  -91.5250 O.2   261  ARG261     -0.2715
     55  CB         1.4400  -64.1080  -94.1910 C.3   261  ARG261      0.0348
     56  CG         2.6220  -63.1530  -93.9800 C.3   261  ARG261      0.0492
     57  CD         3.9630  -63.9450  -94.0810 C.3   261  ARG261      0.2205
     58  NE         4.7470  -63.9650  -92.8320 N.pl3 261  ARG261     -0.0865
     59  CZ         6.0570  -64.2320  -92.7320 C.cat 261  ARG261      0.5346
     60  NH1        6.7830  -64.5790  -93.7910 N.pl3 261  ARG261      0.1354
     61  NH2        6.6380  -64.1900  -91.5380 N.pl3 261  ARG261      0.1354
     62  N         -1.0930  -62.1470  -92.2820 N.am  262  VAL262     -0.1977
     63  CA        -1.7750  -61.8670  -91.0290 C.3   262  VAL262      0.1596
     64  C         -3.2990  -62.0210  -91.1000 C.2   262  VAL262      0.2287
     65  O         -3.8940  -62.6390  -90.2400 O.2   262  VAL262     -0.2864
     66  CB        -1.4170  -60.4550  -90.4800 C.3   262  VAL262      0.0276
     67  CG1       -2.1140  -60.2200  -89.1580 C.3   262  VAL262      0.0022
     68  CG2        0.1090  -60.2980  -90.3590 C.3   262  VAL262      0.0022
     69  N         -9.1910  -52.9100  -94.6940 N.3   269  ARG269     -0.1245
     70  CA        -8.8670  -51.8490  -95.6870 C.3   269  ARG269      0.1563
     71  C         -9.5030  -52.1270  -97.0190 C.2   269  ARG269      0.2260
     72  O         -9.9800  -51.2430  -97.6860 O.2   269  ARG269     -0.2867
     73  CB        -7.3640  -51.6820  -95.8560 C.3   269  ARG269      0.0307
     74  CG        -6.6360  -51.4230  -94.5050 C.3   269  ARG269      0.0489
     75  CD        -5.1190  -51.5960  -94.6320 C.3   269  ARG269      0.2205
     76  NE        -4.7390  -53.0170  -94.9840 N.pl3 269  ARG269     -0.0865
     77  CZ        -3.4940  -53.4400  -95.1970 C.cat 269  ARG269      0.5346
     78  NH1       -2.4190  -52.6320  -95.0690 N.pl3 269  ARG269      0.1354
     79  NH2       -3.2840  -54.7310  -95.5230 N.pl3 269  ARG269      0.1354
     80  N         -6.0790  -55.5380  -99.1540 N.3   314  THR314     -0.1274
     81  CA        -6.1720  -54.1080  -99.4710 C.3   314  THR314      0.1548
     82  C         -5.8420  -53.8410 -100.9400 C.3   314  THR314      0.2036
     83  O         -6.5080  -52.9360 -101.5640 O.3   314  THR314     -0.2187
     84  CB        -5.2130  -53.2830  -98.5400 C.3   314  THR314      0.1721
     85  OG1       -5.4650  -51.8680  -98.7670 O.3   314  THR314     -0.2215
     86  CG2       -3.7640  -53.6350  -98.7710 C.3   314  THR314      0.0371
     87  N          1.5240  -46.0360 -102.1660 N.3   338  PHE338     -0.1241
     88  CA         1.6680  -46.8130 -100.9140 C.3   338  PHE338      0.1605
     89  C          2.7700  -46.1760 -100.0790 C.2   338  PHE338      0.2264
     90  O          2.5000  -45.8470  -98.9150 O.2   338  PHE338     -0.2867
     91  CB         2.0270  -48.2560 -101.3340 C.3   338  PHE338      0.0534
     92  CG         2.0680  -49.2740 -100.2040 C.ar  338  PHE338     -0.0203
     93  CD1        1.3520  -50.4860 -100.3520 C.ar  338  PHE338     -0.0042
     94  CD2        2.8480  -49.1000  -99.0760 C.ar  338  PHE338     -0.0042
     95  CE1        1.3940  -51.4790  -99.3140 C.ar  338  PHE338     -0.0003
     96  CE2        2.9180  -50.0960  -98.0420 C.ar  338  PHE338     -0.0003
     97  CZ         2.1720  -51.2450  -98.1690 C.ar  338  PHE338     -0.0000
     98  N          2.6750  -44.5830  -96.4010 N.3   342  ARG342     -0.1245
     99  CA         3.3240  -45.3620  -95.3530 C.3   342  ARG342      0.1563
    100  C          4.5060  -44.6730  -94.6730 C.2   342  ARG342      0.2260
    101  O          4.9080  -45.0950  -93.5590 O.2   342  ARG342     -0.2867
    102  CB         3.6460  -46.7700  -95.9380 C.3   342  ARG342      0.0307
    103  CG         4.4080  -47.7270  -94.9500 C.3   342  ARG342      0.0489
    104  CD         3.4880  -48.1970  -93.7800 C.3   342  ARG342      0.2205
    105  NE         2.2040  -48.7340  -94.1830 N.pl3 342  ARG342     -0.0865
    106  CZ         1.9310  -50.0140  -94.5070 C.cat 342  ARG342      0.5346
    107  NH1        2.9020  -50.9330  -94.3690 N.pl3 342  ARG342      0.1354
    108  NH2        0.6890  -50.3790  -94.9290 N.pl3 342  ARG342      0.1354
@<TRIPOS>BOND
     1    87    88    1
     2    31    32    1
     3    33    34    2
     4    33    32    1
     5    83    82    1
     6    91    88    1
     7    91    92    1
     8    82    81    1
     9    88    89    1
    10    32    35    1
    11    93    92   ar
    12    93    95   ar
    13    92    94   ar
    14    89    90    2
    15    35    36    1
    16    81    80    1
    17    81    84    1
    18    95    97   ar
    19    94    96   ar
    20    86    84    1
    21    36    37   ar
    22    36    38   ar
    23    85    84    1
    24    37    39   ar
    25    97    96   ar
    26    38    40   ar
    27    72    71    2
    28    39    40   ar
    29    41    42    1
    30    71    70    1
    31    42    45    1
    32    42    43    1
    33    98    99    1
    34   102    99    1
    35   102   103    1
    36    48    46   ar
    37    48    50   ar
    38    73    70    1
    39    73    74    1
    40    45    46    1
    41    30    27    1
    42    70    69    1
    43    79    77    1
    44    99   100    1
    45    46    47   ar
    46    43    51   am
    47    43    44    2
    48    77    78    1
    49    77    76    2
    50    50    49   ar
    51    76    75    1
    52    51    52    1
    53   103   104    1
    54   108   106    1
    55   100   101    2
    56    75    74    1
    57    28    27    1
    58    28    29    2
    59   106   107    1
    60   106   105    2
    61    27    26    1
    62    55    56    1
    63    55    52    1
    64   105   104    1
    65    47    49   ar
    66    57    56    1
    67    57    58    1
    68    26    21   am
    69    52    53    1
    70    60    59    1
    71    23    24    1
    72    23    20    1
    73    21    20    1
    74    21    22    2
    75    58    59    2
    76    24    25    1
    77    59    61    1
    78    15    17   ar
    79    15    14   ar
    80    53    62   am
    81    53    54    2
    82    20    19    1
    83    17    18   ar
    84    62    63    1
    85    13    14    1
    86    13    10    1
    87    14    16   ar
    88    18    16   ar
    89    25    19    1
    90    64    63    1
    91    64    65    2
    92    63    66    1
    93     9    10    1
    94    10    11    1
    95    66    68    1
    96    66    67    1
    97    12    11    2
    98     8     6    1
    99     7     5    1
   100     6     5    1
   101     5     2    1
   102     2     3    1
   103     2     1    1
   104     3     4    2
