@<TRIPOS>MOLECULE
tmp/2ifgA05.pdb
 111 105 0 0 0
SMALL
GASTEIGER

@<TRIPOS>ATOM
      1  N        -46.7230  -18.2830   38.4530 N.3    37  TYR37      -0.1241
      2  CA       -47.3930  -17.8840   39.6850 C.3    37  TYR37       0.1605
      3  C        -48.4660  -18.8940   40.0680 C.2    37  TYR37       0.2264
      4  O        -49.5000  -18.9750   39.3990 O.2    37  TYR37      -0.2867
      5  CB       -47.9970  -16.4860   39.5330 C.3    37  TYR37       0.0534
      6  CG       -46.9540  -15.3890   39.5210 C.ar   37  TYR37      -0.0201
      7  CD1      -45.9730  -15.3440   38.5290 C.ar   37  TYR37      -0.0009
      8  CD2      -46.9280  -14.4130   40.5180 C.ar   37  TYR37      -0.0009
      9  CE1      -44.9880  -14.3540   38.5310 C.ar   37  TYR37       0.0417
     10  CE2      -45.9480  -13.4190   40.5300 C.ar   37  TYR37       0.0417
     11  CZ       -44.9820  -13.3970   39.5340 C.ar   37  TYR37       0.1957
     12  OH       -44.0080  -12.4220   39.5430 O.3    37  TYR37      -0.2866
     13  N        -49.5540  -19.2280   43.4050 N.3    39  GLU39      -0.1245
     14  CA       -50.0270  -18.8710   44.7200 C.3    39  GLU39       0.1567
     15  C        -51.4670  -19.4290   44.6500 C.2    39  GLU39       0.2260
     16  O        -52.0790  -19.4480   43.5720 O.2    39  GLU39      -0.2867
     17  CB       -50.0860  -17.3490   44.8480 C.3    39  GLU39       0.0388
     18  CG       -48.9340  -16.6290   44.1640 C.3    39  GLU39       0.1160
     19  CD       -49.3340  -15.2670   43.6280 C.2    39  GLU39       0.3649
     20  OE1      -49.8470  -14.4410   44.4120 O.co2  39  GLU39      -0.2457
     21  OE2      -49.1340  -15.0240   42.4190 O.co2  39  GLU39      -0.2457
     22  N        -38.3850  -16.7320   37.9310 N.3    60  ASN60      -0.1225
     23  CA       -39.2400  -16.4900   39.0730 C.3    60  ASN60       0.1785
     24  C        -40.2870  -17.5780   39.1980 C.2    60  ASN60       0.2597
     25  O        -41.0170  -17.8500   38.2420 O.2    60  ASN60      -0.2718
     26  CB       -39.9060  -15.1140   38.9560 C.3    60  ASN60       0.1169
     27  CG       -38.8940  -13.9880   38.7510 C.2    60  ASN60       0.2627
     28  OD1      -37.8100  -14.0070   39.3360 O.2    60  ASN60      -0.2716
     29  ND2      -39.2560  -13.0020   37.9320 N.am   60  ASN60      -0.0877
     30  N        -40.3380  -18.2310   40.3540 N.am   61  LEU61      -0.1966
     31  CA       -41.3320  -19.2690   40.5800 C.3    61  LEU61       0.1728
     32  C        -42.0200  -19.0450   41.9240 C.2    61  LEU61       0.2616
     33  O        -41.3880  -19.0890   42.9760 O.2    61  LEU61      -0.2715
     34  CB       -40.6710  -20.6490   40.5750 C.3    61  LEU61       0.0311
     35  CG       -41.5870  -21.8220   40.9350 C.3    61  LEU61       0.0022
     36  CD1      -42.7280  -21.9110   39.9340 C.3    61  LEU61       0.0001
     37  CD2      -40.7880  -23.1130   40.9460 C.3    61  LEU61       0.0001
     38  N        -43.3250  -18.8070   41.8750 N.am   62  THR62      -0.1951
     39  CA       -44.0900  -18.5930   43.0940 C.3    62  THR62       0.1897
     40  C        -45.0160  -19.7660   43.3670 C.2    62  THR62       0.2313
     41  O        -45.8940  -20.0630   42.5600 O.2    62  THR62      -0.2863
     42  CB       -44.9050  -17.3080   43.0000 C.3    62  THR62       0.1794
     43  OG1      -44.0290  -16.2170   42.6910 O.3    62  THR62      -0.2208
     44  CG2      -45.5970  -17.0300   44.3120 C.3    62  THR62       0.0378
     45  N        -46.2900  -20.0030   46.6770 N.3    64  VAL64      -0.1245
     46  CA       -46.8310  -19.5660   47.9500 C.3    64  VAL64       0.1561
     47  C        -48.3070  -19.9580   47.8560 C.2    64  VAL64       0.2260
     48  O        -48.8040  -20.2180   46.7600 O.2    64  VAL64      -0.2867
     49  CB       -46.7220  -18.0310   48.1070 C.3    64  VAL64       0.0252
     50  CG1      -47.4180  -17.3460   46.9530 C.3    64  VAL64       0.0019
     51  CG2      -47.3460  -17.5850   49.4180 C.3    64  VAL64       0.0019
     52  N        -34.9820  -16.5870   41.8910 N.3    84  ARG84      -0.1231
     53  CA       -35.9700  -16.3060   42.9220 C.3    84  ARG84       0.1694
     54  C        -37.0210  -17.4040   43.0010 C.2    84  ARG84       0.2592
     55  O        -37.6020  -17.7190   41.9680 O.2    84  ARG84      -0.2718
     56  CB       -36.6180  -14.9530   42.6310 C.3    84  ARG84       0.0321
     57  CG       -35.6130  -13.9680   42.0570 C.3    84  ARG84       0.0489
     58  CD       -36.0500  -12.5250   42.1420 C.3    84  ARG84       0.2205
     59  NE       -34.9660  -11.6500   41.7060 N.pl3  84  ARG84      -0.0865
     60  CZ       -34.8880  -10.3560   41.9870 C.cat  84  ARG84       0.5346
     61  NH1      -35.8350   -9.7740   42.7100 N.pl3  84  ARG84       0.1354
     62  NH2      -33.8580   -9.6440   41.5520 N.pl3  84  ARG84       0.1354
     63  N        -37.1770  -17.9650   44.1680 N.am   85  LEU85      -0.1966
     64  CA       -38.1020  -19.0560   44.3870 C.3    85  LEU85       0.1728
     65  C        -38.9310  -18.7170   45.6080 C.2    85  LEU85       0.2616
     66  O        -38.4110  -18.6010   46.7250 O.2    85  LEU85      -0.2715
     67  CB       -37.3170  -20.3360   44.6190 C.3    85  LEU85       0.0311
     68  CG       -38.0380  -21.4090   45.4130 C.3    85  LEU85       0.0022
     69  CD1      -39.3210  -21.7860   44.7060 C.3    85  LEU85       0.0001
     70  CD2      -37.1280  -22.6090   45.5670 C.3    85  LEU85       0.0001
     71  N        -40.2190  -18.5340   45.3960 N.am   86  ASN86      -0.1972
     72  CA       -41.0920  -18.2080   46.5030 C.3    86  ASN86       0.1688
     73  C        -42.0490  -19.3480   46.7820 C.2    86  ASN86       0.2292
     74  O        -42.9140  -19.6590   45.9540 O.2    86  ASN86      -0.2864
     75  CB       -41.9070  -16.9420   46.2630 C.3    86  ASN86       0.1181
     76  CG       -42.8190  -16.6110   47.4510 C.2    86  ASN86       0.2629
     77  OD1      -43.4730  -17.5000   47.9990 O.2    86  ASN86      -0.2716
     78  ND2      -42.8740  -15.3390   47.8430 N.am   86  ASN86      -0.0877
     79  N        -43.5070  -19.4740   49.9580 N.3    88  SER88      -0.1202
     80  CA       -44.1670  -18.9480   51.1830 C.3    88  SER88       0.2020
     81  C        -45.6460  -19.2690   51.4690 C.2    88  SER88       0.2618
     82  O        -46.3230  -19.9020   50.6610 O.2    88  SER88      -0.2717
     83  CB       -43.9860  -17.4300   51.2470 C.3    88  SER88       0.2103
     84  OG       -44.5470  -16.8000   50.1100 O.3    88  SER88      -0.2182
     85  N        -46.1390  -18.8160   52.6260 N.am   89  PHE89      -0.1975
     86  CA       -47.5290  -19.0600   53.0490 C.3    89  PHE89       0.1639
     87  C        -47.9650  -20.3840   52.4430 C.2    89  PHE89       0.2290
     88  O        -48.6430  -20.4120   51.4170 O.2    89  PHE89      -0.2864
     89  CB       -48.4450  -17.9360   52.5600 C.3    89  PHE89       0.0560
     90  CG       -48.0810  -16.5770   53.0900 C.ar   89  PHE89      -0.0200
     91  CD1      -46.8620  -15.9890   52.7640 C.ar   89  PHE89      -0.0042
     92  CD2      -48.9620  -15.8780   53.9080 C.ar   89  PHE89      -0.0042
     93  CE1      -46.5270  -14.7260   53.2440 C.ar   89  PHE89      -0.0003
     94  CE2      -48.6370  -14.6140   54.3940 C.ar   89  PHE89      -0.0003
     95  CZ       -47.4180  -14.0370   54.0600 C.ar   89  PHE89      -0.0000
     96  N        -33.1320  -15.2150   45.5860 N.3   107  GLU107     -0.1245
     97  CA       -34.1150  -15.0210   46.6440 C.3   107  GLU107      0.1567
     98  C        -34.9240  -16.2900   46.8820 C.2   107  GLU107      0.2260
     99  O        -35.3810  -16.9070   45.9240 O.2   107  GLU107     -0.2867
    100  CB       -35.0910  -13.9000   46.2820 C.3   107  GLU107      0.0388
    101  CG       -34.4610  -12.5720   45.9310 C.3   107  GLU107      0.1160
    102  CD       -35.5050  -11.4890   45.7370 C.2   107  GLU107      0.3649
    103  OE1      -36.4600  -11.7130   44.9610 O.co2 107  GLU107     -0.2457
    104  OE2      -35.3750  -10.4150   46.3610 O.co2 107  GLU107     -0.2457
    105  N        -38.0310  -17.5460   49.3620 N.3   109  VAL109     -0.1245
    106  CA       -39.0230  -17.2490   50.3870 C.3   109  VAL109      0.1561
    107  C        -39.6000  -18.5330   50.9720 C.2   109  VAL109      0.2260
    108  O        -40.2310  -19.2820   50.2460 O.2   109  VAL109     -0.2867
    109  CB       -40.1620  -16.3900   49.8300 C.3   109  VAL109      0.0252
    110  CG1      -41.0590  -15.9360   50.9640 C.3   109  VAL109      0.0019
    111  CG2      -39.5900  -15.1900   49.0950 C.3   109  VAL109      0.0019
@<TRIPOS>BOND
     1    22    23    1
     2    29    27   am
     3    25    24    2
     4     1     2    1
     5     7     9   ar
     6     7     6   ar
     7     9    11   ar
     8    27    26    1
     9    27    28    2
    10    26    23    1
    11    23    24    1
    12    24    30   am
    13     4     3    2
    14     6     5    1
    15     6     8   ar
    16     5     2    1
    17    11    12    1
    18    11    10   ar
    19     2     3    1
    20    36    35    1
    21    30    31    1
    22     8    10   ar
    23    34    31    1
    24    34    35    1
    25    31    32    1
    26    35    37    1
    27    62    60    1
    28    59    60    2
    29    59    58    1
    30    38    32   am
    31    38    39    1
    32    52    53    1
    33    32    33    2
    34    55    54    2
    35    60    61    1
    36    57    58    1
    37    57    56    1
    38    21    19   ar
    39    41    40    2
    40    56    53    1
    41    43    42    1
    42    53    54    1
    43    42    39    1
    44    42    44    1
    45    54    63   am
    46    39    40    1
    47    13    14    1
    48    16    15    2
    49    19    18    1
    50    19    20   ar
    51    18    17    1
    52    63    64    1
    53    64    67    1
    54    64    65    1
    55    67    68    1
    56    15    14    1
    57    69    68    1
    58    14    17    1
    59   103   102   ar
    60    71    65   am
    61    71    72    1
    62    68    70    1
    63    96    97    1
    64    65    66    2
    65   102   101    1
    66   102   104   ar
    67    99    98    2
    68   101   100    1
    69    74    73    2
    70    75    72    1
    71    75    76    1
    72   100    97    1
    73    72    73    1
    74    97    98    1
    75    45    46    1
    76    48    47    2
    77    50    49    1
    78    76    78   am
    79    76    77    2
    80    47    46    1
    81    46    49    1
    82    49    51    1
    83   111   109    1
    84   105   106    1
    85   109   106    1
    86   109   110    1
    87    79    80    1
    88    84    83    1
    89   108   107    2
    90   106   107    1
    91    82    81    2
    92    80    83    1
    93    80    81    1
    94    88    87    2
    95    81    85   am
    96    87    86    1
    97    89    86    1
    98    89    90    1
    99    85    86    1
   100    91    90   ar
   101    91    93   ar
   102    90    92   ar
   103    93    95   ar
   104    92    94   ar
   105    95    94   ar
