@<TRIPOS>MOLECULE
tmp/2ig0A00.pdb
 113 109 0 0 0
SMALL
GASTEIGER

@<TRIPOS>ATOM
      1  N         -0.2830   -5.2070    8.8690 N.3    11  TRP11      -0.1241
      2  CA        -1.7260   -5.2480    9.0440 C.3    11  TRP11       0.1605
      3  C         -2.2770   -5.9200    7.7970 C.2    11  TRP11       0.2264
      4  O         -2.1870   -5.3720    6.7600 O.2    11  TRP11      -0.2867
      5  CB        -2.2480   -3.8290    9.1090 C.3    11  TRP11       0.0550
      6  CG        -3.7110   -3.7180    9.3240 C.ar   11  TRP11       0.0003
      7  CD1       -4.6480   -3.1560    8.4890 C.ar   11  TRP11       0.0946
      8  CD2       -4.3950   -4.0850   10.5200 C.ar   11  TRP11       0.0152
      9  NE1       -5.9130   -3.2120    9.0960 N.ar   11  TRP11      -0.2442
     10  CE2       -5.7620   -3.7610   10.3510 C.ar   11  TRP11       0.0810
     11  CE3       -3.9760   -4.6440   11.7270 C.ar   11  TRP11       0.0012
     12  CZ2       -6.7190   -4.0090   11.3580 C.ar   11  TRP11       0.0191
     13  CZ3       -4.9410   -4.8860   12.7380 C.ar   11  TRP11       0.0001
     14  CH2       -6.2820   -4.5530   12.5300 C.ar   11  TRP11       0.0015
     15  N         -4.4640   -4.2820    4.6010 N.3    14  ASN14      -0.1240
     16  CA        -3.8640   -3.3110    3.7080 C.3    14  ASN14       0.1653
     17  C         -2.3880   -3.5140    3.3320 C.2    14  ASN14       0.2266
     18  O         -1.9060   -2.8060    2.4850 O.2    14  ASN14      -0.2867
     19  CB        -4.2250   -1.8970    4.1030 C.3    14  ASN14       0.1155
     20  CG        -3.4090   -1.3510    5.2660 C.2    14  ASN14       0.2627
     21  OD1       -3.6560   -0.2220    5.7030 O.2    14  ASN14      -0.2716
     22  ND2       -2.4550   -2.1310    5.7670 N.am   14  ASN14      -0.0877
     23  N          0.3070   -2.7870    4.8490 N.3    16  TYR16      -0.1241
     24  CA         1.2730   -1.8430    5.4850 C.3    16  TYR16       0.1605
     25  C          1.6760   -2.3910    6.8650 C.2    16  TYR16       0.2264
     26  O          0.8970   -3.1460    7.4840 O.2    16  TYR16      -0.2867
     27  CB         0.6680   -0.4570    5.6360 C.3    16  TYR16       0.0534
     28  CG         0.6690    0.3960    4.3870 C.ar   16  TYR16      -0.0201
     29  CD1       -0.1300    0.0650    3.2770 C.ar   16  TYR16      -0.0009
     30  CD2        1.5390    1.4640    4.2680 C.ar   16  TYR16      -0.0009
     31  CE1       -0.1150    0.8860    2.1150 C.ar   16  TYR16       0.0417
     32  CE2        1.5710    2.2650    3.1380 C.ar   16  TYR16       0.0417
     33  CZ         0.8020    1.9420    2.0500 C.ar   16  TYR16       0.1957
     34  OH         0.8500    2.7760    0.9410 O.3    16  TYR16      -0.2866
     35  N          2.8550   -1.3720   10.7980 N.3    18  TYR18      -0.1241
     36  CA         2.5760   -0.3200   11.7610 C.3    18  TYR18       0.1605
     37  C          3.3430   -0.6600   13.0480 C.2    18  TYR18       0.2264
     38  O          3.5240   -1.8160   13.3300 O.2    18  TYR18      -0.2867
     39  CB         1.0620   -0.2670   12.0390 C.3    18  TYR18       0.0534
     40  CG         0.2560    0.1710   10.8330 C.ar   18  TYR18      -0.0201
     41  CD1       -0.1650   -0.7340    9.8960 C.ar   18  TYR18      -0.0009
     42  CD2       -0.0770    1.5190   10.6580 C.ar   18  TYR18      -0.0009
     43  CE1       -0.8700   -0.3090    8.7370 C.ar   18  TYR18       0.0417
     44  CE2       -0.7720    1.9390    9.5020 C.ar   18  TYR18       0.0417
     45  CZ        -1.1770    1.0030    8.5920 C.ar   18  TYR18       0.1957
     46  OH        -1.8730    1.3880    7.4770 O.3    18  TYR18      -0.2866
     47  N         -1.3060   -2.9100   18.3600 N.3    35  PHE35      -0.1241
     48  CA        -0.7600   -1.7870   17.7110 C.3    35  PHE35       0.1605
     49  C         -0.9150   -0.5300   18.5440 C.2    35  PHE35       0.2264
     50  O         -1.8310   -0.3840   19.4150 O.2    35  PHE35      -0.2867
     51  CB        -1.4940   -1.6630   16.3780 C.3    35  PHE35       0.0534
     52  CG        -1.1650   -2.7900   15.4280 C.ar   35  PHE35      -0.0203
     53  CD1       -1.9920   -3.8670   15.2780 C.ar   35  PHE35      -0.0042
     54  CD2        0.0300   -2.7100   14.6420 C.ar   35  PHE35      -0.0042
     55  CE1       -1.6900   -4.8930   14.3820 C.ar   35  PHE35      -0.0003
     56  CE2        0.3380   -3.6740   13.7370 C.ar   35  PHE35      -0.0003
     57  CZ        -0.4940   -4.7760   13.5770 C.ar   35  PHE35      -0.0000
     58  N         -2.0850    2.1990   17.7280 N.3    37  ASP37      -0.1239
     59  CA        -3.3250    2.9680   17.4930 C.3    37  ASP37       0.1674
     60  C         -4.5080    2.2510   18.1180 C.2    37  ASP37       0.2266
     61  O         -5.6570    2.6820   17.9600 O.2    37  ASP37      -0.2867
     62  CB        -3.5280    3.2840   16.0000 C.3    37  ASP37       0.1410
     63  CG        -3.7400    2.0540   15.1160 C.2    37  ASP37       0.3668
     64  OD1       -3.5320    0.8890   15.5270 O.co2  37  ASP37      -0.2456
     65  OD2       -4.0900    2.2760   13.9260 O.co2  37  ASP37      -0.2456
     66  N         -5.5450   -1.0230   17.8080 N.3    39  TYR39      -0.1241
     67  CA        -6.0880   -2.1720   17.0850 C.3    39  TYR39       0.1605
     68  C         -5.3100   -3.4310   17.5120 C.2    39  TYR39       0.2264
     69  O         -4.1390   -3.3500   17.9080 O.2    39  TYR39      -0.2867
     70  CB        -5.9540   -1.9290   15.5780 C.3    39  TYR39       0.0534
     71  CG        -6.9680   -0.9820   14.9320 C.ar   39  TYR39      -0.0201
     72  CD1       -7.8940   -1.4640   13.9890 C.ar   39  TYR39      -0.0009
     73  CD2       -7.0030    0.3530   15.2540 C.ar   39  TYR39      -0.0009
     74  CE1       -8.8630   -0.6120   13.3910 C.ar   39  TYR39       0.0417
     75  CE2       -7.9890    1.2560   14.6420 C.ar   39  TYR39       0.0417
     76  CZ        -8.8830    0.7450   13.7170 C.ar   39  TYR39       0.1957
     77  OH        -9.8130    1.5750   13.0820 O.3    39  TYR39      -0.2866
     78  N          3.0440   10.2140    7.0930 N.3    63  LEU63      -0.1245
     79  CA         1.6530   10.6500    7.1240 C.3    63  LEU63       0.1561
     80  C          1.5830   12.1230    7.4160 C.2    63  LEU63       0.2260
     81  O          2.1200   12.6000    8.4670 O.2    63  LEU63      -0.2867
     82  CB         0.8850    9.8490    8.1930 C.3    63  LEU63       0.0270
     83  CG         0.9110    8.3160    8.0230 C.3    63  LEU63       0.0019
     84  CD1       -0.0130    7.6190    9.0220 C.3    63  LEU63       0.0001
     85  CD2        0.5300    7.7930    6.6390 C.3    63  LEU63       0.0001
     86  N         -4.4340   13.7640    5.7310 N.3    67  GLU67      -0.1245
     87  CA        -4.5700   12.4010    5.1920 C.3    67  GLU67       0.1567
     88  C         -3.8340   12.1620    3.8800 C.2    67  GLU67       0.2260
     89  O         -4.2280   11.2550    3.1300 O.2    67  GLU67      -0.2867
     90  CB        -6.0330   11.9160    5.0920 C.3    67  GLU67       0.0388
     91  CG        -6.8240   11.9970    6.4070 C.3    67  GLU67       0.1160
     92  CD        -8.3100   11.7850    6.2140 C.2    67  GLU67       0.3649
     93  OE1       -8.7940   10.6780    6.5200 O.co2  67  GLU67      -0.2457
     94  OE2       -8.9940   12.7170    5.7460 O.co2  67  GLU67      -0.2457
     95  N         -0.1440   11.0000    2.1090 N.3    69  PHE69      -0.1241
     96  CA         1.1080   10.2710    2.4410 C.3    69  PHE69       0.1605
     97  C          2.1300   10.3240    1.3390 C.2    69  PHE69       0.2264
     98  O          1.8070   10.4870    0.1430 O.2    69  PHE69      -0.2867
     99  CB         0.8850    8.8170    2.8440 C.3    69  PHE69       0.0534
    100  CG         0.2090    7.9710    1.8240 C.ar   69  PHE69      -0.0203
    101  CD1       -1.1830    8.0780    1.5900 C.ar   69  PHE69      -0.0042
    102  CD2        0.8880    6.9490    1.2020 C.ar   69  PHE69      -0.0042
    103  CE1       -1.8070    7.2200    0.6590 C.ar   69  PHE69      -0.0003
    104  CE2        0.2430    6.0770    0.2970 C.ar   69  PHE69      -0.0003
    105  CZ        -1.0990    6.2410    0.0320 C.ar   69  PHE69      -0.0000
    106  N          5.0050    4.8270    8.8890 N.3   103  ILE103     -0.1245
    107  CA         4.6160    3.4320    8.6040 C.3   103  ILE103      0.1561
    108  C          5.4090    2.8900    7.4510 C.2   103  ILE103      0.2260
    109  O          6.1530    3.6530    6.8610 O.2   103  ILE103     -0.2867
    110  CB         3.0900    3.3420    8.3610 C.3   103  ILE103      0.0252
    111  CG1        2.7190    4.0190    7.0350 C.3   103  ILE103      0.0019
    112  CG2        2.3570    4.0620    9.4700 C.3   103  ILE103      0.0019
    113  CD1        1.0920    3.9860    6.7000 C.3   103  ILE103      0.0001
@<TRIPOS>BOND
     1   105   104   ar
     2   105   103   ar
     3    98    97    2
     4   104   102   ar
     5   103   101   ar
     6    34    33    1
     7   102   100   ar
     8    97    96    1
     9   101   100   ar
    10   100    99    1
    11    33    31   ar
    12    33    32   ar
    13    95    96    1
    14    31    29   ar
    15    96    99    1
    16    18    17    2
    17    89    88    2
    18    32    30   ar
    19    29    28   ar
    20    17    16    1
    21    16    19    1
    22    16    15    1
    23    88    87    1
    24    19    20    1
    25    30    28   ar
    26    28    27    1
    27    23    24    1
    28    90    87    1
    29    90    91    1
    30    87    86    1
    31    20    21    2
    32    20    22   am
    33    24    27    1
    34    24    25    1
    35    94    92   ar
    36    92    91    1
    37    92    93   ar
    38    85    83    1
    39   113   111    1
    40     4     3    2
    41   109   108    2
    42    25    26    2
    43   111   110    1
    44    78    79    1
    45    79    80    1
    46    79    82    1
    47    80    81    2
    48   108   107    1
    49    46    45    1
    50     3     2    1
    51    83    82    1
    52    83    84    1
    53   110   107    1
    54   110   112    1
    55     7     9   ar
    56     7     6   ar
    57    45    43   ar
    58    45    44   ar
    59   107   106    1
    60    43    41   ar
    61     1     2    1
    62     2     5    1
    63     9    10   ar
    64     5     6    1
    65     6     8   ar
    66    44    42   ar
    67    41    40   ar
    68    10     8   ar
    69    10    12   ar
    70     8    11   ar
    71    42    40   ar
    72    35    36    1
    73    40    39    1
    74    12    14   ar
    75    11    13   ar
    76    36    39    1
    77    36    37    1
    78    14    13   ar
    79    37    38    2
    80    77    76    1
    81    74    76   ar
    82    74    72   ar
    83    57    56   ar
    84    57    55   ar
    85    76    75   ar
    86    56    54   ar
    87    65    63   ar
    88    72    71   ar
    89    55    53   ar
    90    54    52   ar
    91    75    73   ar
    92    71    73   ar
    93    71    70    1
    94    63    64   ar
    95    63    62    1
    96    53    52   ar
    97    52    51    1
    98    70    67    1
    99    62    59    1
   100    51    48    1
   101    67    68    1
   102    67    66    1
   103    59    58    1
   104    59    60    1
   105    68    69    2
   106    48    47    1
   107    48    49    1
   108    61    60    2
   109    49    50    2
