@<TRIPOS>MOLECULE
tmp/2ig3A00.pdb
 239 237 0 0 0
SMALL
GASTEIGER

@<TRIPOS>ATOM
      1  N         -4.7450  -28.2920  -17.2010 N.3    19  TYR19      -0.1241
      2  CA        -4.8490  -29.4700  -18.0730 C.3    19  TYR19       0.1605
      3  C         -4.0610  -29.3540  -19.3750 C.2    19  TYR19       0.2264
      4  O         -3.7290  -30.3600  -19.9950 O.2    19  TYR19      -0.2867
      5  CB        -6.2990  -29.9490  -18.2450 C.3    19  TYR19       0.0534
      6  CG        -6.7700  -30.5640  -16.9430 C.ar   19  TYR19      -0.0201
      7  CD1       -7.6390  -29.8730  -16.0950 C.ar   19  TYR19      -0.0009
      8  CD2       -6.2580  -31.7880  -16.5110 C.ar   19  TYR19      -0.0009
      9  CE1       -8.0250  -30.4160  -14.8670 C.ar   19  TYR19       0.0417
     10  CE2       -6.6380  -32.3380  -15.2940 C.ar   19  TYR19       0.0417
     11  CZ        -7.5180  -31.6490  -14.4790 C.ar   19  TYR19       0.1957
     12  OH        -7.8900  -32.1900  -13.2720 O.3    19  TYR19      -0.2866
     13  N          2.4590  -37.4720  -17.1140 N.3    28  LEU28      -0.1245
     14  CA         1.0050  -37.4800  -16.9680 C.3    28  LEU28       0.1561
     15  C          0.2770  -37.6290  -18.2980 C.2    28  LEU28       0.2260
     16  O         -0.7040  -38.3540  -18.3830 O.2    28  LEU28      -0.2867
     17  CB         0.5290  -36.2300  -16.2300 C.3    28  LEU28       0.0270
     18  CG         1.1420  -36.0340  -14.8300 C.3    28  LEU28       0.0019
     19  CD1        0.6480  -34.7530  -14.1850 C.3    28  LEU28       0.0001
     20  CD2        0.8410  -37.2300  -13.9420 C.3    28  LEU28       0.0001
     21  N         -1.0950  -41.0870  -19.4880 N.3    31  ILE31      -0.1231
     22  CA        -2.1690  -41.5750  -18.6060 C.3    31  ILE31       0.1692
     23  C         -3.5090  -40.9590  -18.9860 C.2    31  ILE31       0.2592
     24  O         -4.5050  -41.6630  -19.1430 O.2    31  ILE31      -0.2718
     25  CB        -1.8700  -41.2580  -17.1210 C.3    31  ILE31       0.0266
     26  CG1       -0.5750  -41.9610  -16.6930 C.3    31  ILE31       0.0019
     27  CG2       -3.0410  -41.6850  -16.2150 C.3    31  ILE31       0.0020
     28  CD1       -0.1380  -41.5950  -15.3280 C.3    31  ILE31       0.0001
     29  N         -3.5210  -39.6360  -19.1160 N.am   32  PHE32      -0.1976
     30  CA        -4.7460  -38.9130  -19.4070 C.3    32  PHE32       0.1639
     31  C         -5.2130  -39.2150  -20.8230 C.2    32  PHE32       0.2290
     32  O         -6.3910  -39.4760  -21.0380 O.2    32  PHE32      -0.2864
     33  CB        -4.5500  -37.4150  -19.1900 C.3    32  PHE32       0.0560
     34  CG        -4.6210  -36.9980  -17.7500 C.ar   32  PHE32      -0.0200
     35  CD1       -3.5270  -37.1840  -16.9000 C.ar   32  PHE32      -0.0042
     36  CD2       -5.7840  -36.4320  -17.2360 C.ar   32  PHE32      -0.0042
     37  CE1       -3.5880  -36.7990  -15.5580 C.ar   32  PHE32      -0.0003
     38  CE2       -5.8540  -36.0410  -15.8950 C.ar   32  PHE32      -0.0003
     39  CZ        -4.7460  -36.2230  -15.0620 C.ar   32  PHE32      -0.0000
     40  N         -6.8240  -42.5120  -21.1810 N.3    35  ALA35      -0.1231
     41  CA        -8.1000  -42.5750  -20.4570 C.3    35  ALA35       0.1694
     42  C         -9.2410  -41.7700  -21.1050 C.2    35  ALA35       0.2591
     43  O        -10.3700  -42.2500  -21.1760 O.2    35  ALA35      -0.2718
     44  CB        -7.9080  -42.1620  -18.9970 C.3    35  ALA35       0.0304
     45  N         -8.9570  -40.5570  -21.5710 N.am   36  ILE36      -0.1980
     46  CA       -10.0270  -39.6930  -22.0610 C.3    36  ILE36       0.1595
     47  C        -10.0100  -39.4890  -23.5790 C.2    36  ILE36       0.2287
     48  O        -11.0290  -39.1090  -24.1580 O.2    36  ILE36      -0.2864
     49  CB       -10.0920  -38.3210  -21.3140 C.3    36  ILE36       0.0276
     50  CG1       -8.9910  -37.3710  -21.7810 C.3    36  ILE36       0.0022
     51  CG2      -10.0460  -38.5130  -19.7830 C.3    36  ILE36       0.0022
     52  CD1       -9.2660  -35.9330  -21.4530 C.3    36  ILE36       0.0001
     53  N        -13.5160  -33.0770  -20.3200 N.3    46  HIS46      -0.1241
     54  CA       -12.8080  -33.4220  -19.0870 C.3    46  HIS46       0.1621
     55  C        -12.6240  -32.1840  -18.2300 C.2    46  HIS46       0.2264
     56  O        -12.8860  -32.2260  -17.0420 O.2    46  HIS46      -0.2867
     57  CB       -11.4510  -34.0860  -19.3660 C.3    46  HIS46       0.0745
     58  CG       -10.7120  -34.5020  -18.1270 C.ar   46  HIS46       0.0817
     59  ND1       -9.6150  -33.8150  -17.6440 N.ar   46  HIS46      -0.2268
     60  CD2      -10.9200  -35.5260  -17.2680 C.ar   46  HIS46       0.1154
     61  CE1       -9.1800  -34.4030  -16.5440 C.ar   46  HIS46       0.1986
     62  NE2       -9.9550  -35.4420  -16.2930 N.ar   46  HIS46      -0.2212
     63  N        -15.9120  -31.2610  -16.6410 N.3    49  LYS49      -0.1231
     64  CA       -16.1870  -32.1340  -15.4950 C.3    49  LYS49       0.1693
     65  C        -15.3670  -31.7710  -14.2560 C.2    49  LYS49       0.2591
     66  O        -15.9280  -31.6100  -13.1680 O.2    49  LYS49      -0.2718
     67  CB       -15.9510  -33.5990  -15.8380 C.3    49  LYS49       0.0285
     68  CG       -16.2920  -34.5620  -14.6860 C.3    49  LYS49       0.0035
     69  CD       -16.0030  -35.9940  -15.0520 C.3    49  LYS49       0.0206
     70  CE       -16.9550  -36.4870  -16.1340 C.3    49  LYS49       0.1093
     71  NZ       -16.3130  -37.5900  -16.9030 N.3    49  LYS49      -0.1314
     72  N        -14.0490  -31.6540  -14.4160 N.am   50  ILE50      -0.1980
     73  CA       -13.1830  -31.2670  -13.2930 C.3    50  ILE50       0.1595
     74  C        -13.5410  -29.8610  -12.7960 C.2    50  ILE50       0.2287
     75  O        -13.4980  -29.6030  -11.5900 O.2    50  ILE50      -0.2864
     76  CB       -11.6660  -31.3830  -13.6120 C.3    50  ILE50       0.0276
     77  CG1      -11.3340  -32.7410  -14.2250 C.3    50  ILE50       0.0022
     78  CG2      -10.8160  -31.1590  -12.3510 C.3    50  ILE50       0.0022
     79  CD1      -11.8310  -33.9660  -13.4210 C.3    50  ILE50       0.0001
     80  N        -16.3750  -30.4310  -10.5300 N.3    53  PHE53      -0.1227
     81  CA       -15.8460  -30.9940   -9.2900 C.3    53  PHE53       0.1736
     82  C        -15.3960  -29.8770   -8.3590 C.2    53  PHE53       0.2595
     83  O        -15.7750  -29.8390   -7.1920 O.2    53  PHE53      -0.2718
     84  CB       -14.6930  -31.9610   -9.5730 C.3    53  PHE53       0.0547
     85  CG       -13.9610  -32.4120   -8.3390 C.ar   53  PHE53      -0.0202
     86  CD1      -14.5250  -33.3690   -7.4890 C.ar   53  PHE53      -0.0042
     87  CD2      -12.7090  -31.8790   -8.0250 C.ar   53  PHE53      -0.0042
     88  CE1      -13.8480  -33.7920   -6.3380 C.ar   53  PHE53      -0.0003
     89  CE2      -12.0220  -32.2940   -6.8800 C.ar   53  PHE53      -0.0003
     90  CZ       -12.5960  -33.2610   -6.0380 C.ar   53  PHE53      -0.0000
     91  N        -14.6050  -28.9570   -8.8990 N.am   54  TRP54      -0.1976
     92  CA       -14.0360  -27.8740   -8.1190 C.3    54  TRP54       0.1640
     93  C        -15.0640  -26.8450   -7.6910 C.2    54  TRP54       0.2290
     94  O        -14.9840  -26.3160   -6.5830 O.2    54  TRP54      -0.2864
     95  CB       -12.8690  -27.2260   -8.8620 C.3    54  TRP54       0.0576
     96  CG       -11.5900  -28.0310   -8.7650 C.ar   54  TRP54       0.0006
     97  CD1      -10.9220  -28.6390   -9.7900 C.ar   54  TRP54       0.0946
     98  CD2      -10.8430  -28.3120   -7.5750 C.ar   54  TRP54       0.0152
     99  NE1       -9.8030  -29.2760   -9.3160 N.ar   54  TRP54      -0.2442
    100  CE2       -9.7280  -29.0940   -7.9590 C.ar   54  TRP54       0.0810
    101  CE3      -11.0130  -27.9900   -6.2200 C.ar   54  TRP54       0.0012
    102  CZ2       -8.7790  -29.5650   -7.0310 C.ar   54  TRP54       0.0191
    103  CZ3      -10.0740  -28.4560   -5.2960 C.ar   54  TRP54       0.0001
    104  CH2       -8.9670  -29.2310   -5.7100 C.ar   54  TRP54       0.0015
    105  N        -21.3730  -31.9290  -10.7140 N.3    64  TYR64      -0.1241
    106  CA       -20.4940  -33.0810  -10.4990 C.3    64  TYR64       0.1605
    107  C        -21.1760  -34.0920   -9.5850 C.2    64  TYR64       0.2264
    108  O        -21.6070  -33.7480   -8.4850 O.2    64  TYR64      -0.2867
    109  CB       -19.1090  -32.7200   -9.9480 C.3    64  TYR64       0.0534
    110  CG       -18.2300  -33.9570   -9.8500 C.ar   64  TYR64      -0.0201
    111  CD1      -18.0090  -34.5950   -8.6220 C.ar   64  TYR64      -0.0009
    112  CD2      -17.6700  -34.5210  -11.0000 C.ar   64  TYR64      -0.0009
    113  CE1      -17.2180  -35.7590   -8.5390 C.ar   64  TYR64       0.0417
    114  CE2      -16.8790  -35.6830  -10.9350 C.ar   64  TYR64       0.0417
    115  CZ       -16.6550  -36.2880   -9.7050 C.ar   64  TYR64       0.1957
    116  OH       -15.8980  -37.4290   -9.6630 O.3    64  TYR64      -0.2866
    117  N        -19.9230  -37.7360   -9.7190 N.3    66  GLY66      -0.1210
    118  CA       -19.1520  -38.9710   -9.8020 C.3    66  GLY66       0.1956
    119  C        -18.4600  -39.4030   -8.5260 C.2    66  GLY66       0.2612
    120  O        -18.6330  -38.8020   -7.4670 O.2    66  GLY66      -0.2717
    121  N        -17.6440  -40.4450   -8.6480 N.am   67  GLN67      -0.1966
    122  CA       -16.9530  -41.0460   -7.5150 C.3    67  GLN67       0.1718
    123  C        -15.4480  -40.9310   -7.7450 C.2    67  GLN67       0.2458
    124  O        -14.8560  -41.8200   -8.3380 O.2    67  GLN67      -0.2730
    125  CB       -17.3870  -42.5070   -7.3610 C.3    67  GLN67       0.0407
    126  CG       -18.8510  -42.6710   -6.8990 C.3    67  GLN67       0.0908
    127  CD       -19.2830  -44.1270   -6.7550 C.2    67  GLN67       0.2608
    128  OE1      -19.3310  -44.6590   -5.6430 O.2    67  GLN67      -0.2717
    129  NE2      -19.6010  -44.7760   -7.8770 N.am   67  GLN67      -0.0878
    130  N        -14.8330  -39.8150   -7.3000 N.am   68  PRO68      -0.2727
    131  CA       -13.4480  -39.5160   -7.6760 C.3    68  PRO68       0.1402
    132  C        -12.4480  -40.5920   -7.2510 C.2    68  PRO68       0.2269
    133  O        -11.6780  -41.0400   -8.0840 O.2    68  PRO68      -0.2865
    134  CB       -13.1690  -38.1750   -6.9940 C.3    68  PRO68       0.0296
    135  CG       -14.5220  -37.5900   -6.7460 C.3    68  PRO68       0.0237
    136  CD       -15.3990  -38.7570   -6.4470 C.3    68  PRO68       0.0939
    137  N        -12.8180  -43.8240   -9.4020 N.3    71  LYS71      -0.1231
    138  CA       -12.2620  -43.5410  -10.7230 C.3    71  LYS71       0.1693
    139  C        -10.7510  -43.7360  -10.8210 C.2    71  LYS71       0.2592
    140  O        -10.2620  -44.3540  -11.7800 O.2    71  LYS71      -0.2718
    141  CB       -12.6420  -42.1220  -11.1750 C.3    71  LYS71       0.0285
    142  CG       -14.0350  -42.0530  -11.7970 C.3    71  LYS71       0.0035
    143  CD       -14.0180  -42.7010  -13.1820 C.3    71  LYS71       0.0206
    144  CE       -15.3180  -42.5130  -13.9110 C.3    71  LYS71       0.1093
    145  NZ       -15.2090  -43.0560  -15.3140 N.3    71  LYS71      -0.1314
    146  N        -10.0220  -43.2010   -9.8460 N.am   72  HIS72      -0.1976
    147  CA        -8.5640  -43.3510   -9.7950 C.3    72  HIS72       0.1656
    148  C         -8.1150  -44.7590   -9.4060 C.2    72  HIS72       0.2291
    149  O         -7.0800  -45.2430   -9.8850 O.2    72  HIS72      -0.2864
    150  CB        -7.9520  -42.3000   -8.8790 C.3    72  HIS72       0.0771
    151  CG        -8.1930  -40.9050   -9.3530 C.ar   72  HIS72       0.0820
    152  ND1       -9.4040  -40.2700   -9.1970 N.ar   72  HIS72      -0.2267
    153  CD2       -7.3960  -40.0380  -10.0160 C.ar   72  HIS72       0.1154
    154  CE1       -9.3340  -39.0580   -9.7130 C.ar   72  HIS72       0.1986
    155  NE2       -8.1290  -38.8970  -10.2290 N.ar   72  HIS72      -0.2212
    156  N         -8.3770  -46.8050  -12.6400 N.3    75  LEU75      -0.1245
    157  CA        -7.3800  -46.4950  -13.6660 C.3    75  LEU75       0.1561
    158  C         -6.3000  -47.5570  -13.7030 C.2    75  LEU75       0.2260
    159  O         -5.9840  -48.1520  -12.6640 O.2    75  LEU75      -0.2867
    160  CB        -6.7260  -45.1360  -13.4180 C.3    75  LEU75       0.0270
    161  CG        -7.4560  -43.8400  -13.7880 C.3    75  LEU75       0.0019
    162  CD1       -6.7320  -42.6690  -13.1580 C.3    75  LEU75       0.0001
    163  CD2       -7.5650  -43.6640  -15.2870 C.3    75  LEU75       0.0001
    164  N         -0.4650  -46.5020  -11.8970 N.3    78  PHE78      -0.1241
    165  CA         0.5890  -45.5680  -12.2390 C.3    78  PHE78       0.1605
    166  C          1.3950  -45.2880  -10.9670 C.2    78  PHE78       0.2264
    167  O          0.8840  -45.5200   -9.8630 O.2    78  PHE78      -0.2867
    168  CB         0.0090  -44.2750  -12.8590 C.3    78  PHE78       0.0534
    169  CG        -0.9720  -43.5490  -11.9780 C.ar   78  PHE78      -0.0203
    170  CD1       -2.3390  -43.7050  -12.1650 C.ar   78  PHE78      -0.0042
    171  CD2       -0.5300  -42.6940  -10.9750 C.ar   78  PHE78      -0.0042
    172  CE1       -3.2470  -43.0250  -11.3470 C.ar   78  PHE78      -0.0003
    173  CE2       -1.4250  -42.0130  -10.1610 C.ar   78  PHE78      -0.0003
    174  CZ        -2.7850  -42.1820  -10.3420 C.ar   78  PHE78      -0.0000
    175  N          3.7980  -39.8150   -9.3340 N.3    82  PHE82      -0.1227
    176  CA         3.0700  -38.9490  -10.2640 C.3    82  PHE82       0.1736
    177  C          2.2200  -37.9170   -9.5250 C.2    82  PHE82       0.2595
    178  O          1.9070  -36.8640  -10.0810 O.2    82  PHE82      -0.2718
    179  CB         2.2370  -39.7740  -11.2460 C.3    82  PHE82       0.0547
    180  CG         3.0490  -40.4240  -12.3540 C.ar   82  PHE82      -0.0202
    181  CD1        2.4100  -40.9980  -13.4470 C.ar   82  PHE82      -0.0042
    182  CD2        4.4510  -40.4470  -12.3120 C.ar   82  PHE82      -0.0042
    183  CE1        3.1410  -41.6090  -14.4690 C.ar   82  PHE82      -0.0003
    184  CE2        5.1970  -41.0400  -13.3390 C.ar   82  PHE82      -0.0003
    185  CZ         4.5340  -41.6260  -14.4160 C.ar   82  PHE82      -0.0000
    186  N          1.8710  -38.2070   -8.2630 N.am   83  PHE83      -0.1976
    187  CA         1.0850  -37.2730   -7.4440 C.3    83  PHE83       0.1639
    188  C          1.8650  -35.9910   -7.1400 C.2    83  PHE83       0.2290
    189  O          1.2860  -34.9100   -7.0720 O.2    83  PHE83      -0.2864
    190  CB         0.5690  -37.9450   -6.1590 C.3    83  PHE83       0.0560
    191  CG        -0.7170  -38.7050   -6.3430 C.ar   83  PHE83      -0.0200
    192  CD1       -0.7030  -40.0630   -6.6650 C.ar   83  PHE83      -0.0042
    193  CD2       -1.9460  -38.0650   -6.1920 C.ar   83  PHE83      -0.0042
    194  CE1       -1.8910  -40.7650   -6.8390 C.ar   83  PHE83      -0.0003
    195  CE2       -3.1430  -38.7630   -6.3740 C.ar   83  PHE83      -0.0003
    196  CZ        -3.1140  -40.1120   -6.6990 C.ar   83  PHE83      -0.0000
    197  N          1.6660  -33.9430  -10.5110 N.3    86  TRP86      -0.1241
    198  CA         0.3040  -33.3750  -10.5560 C.3    86  TRP86       0.1605
    199  C          0.1920  -32.1320   -9.6780 C.2    86  TRP86       0.2264
    200  O         -0.3030  -31.0930  -10.1230 O.2    86  TRP86      -0.2867
    201  CB        -0.7160  -34.4420  -10.1180 C.3    86  TRP86       0.0550
    202  CG        -2.1920  -34.1070  -10.3330 C.ar   86  TRP86       0.0003
    203  CD1       -3.0190  -34.6440  -11.2840 C.ar   86  TRP86       0.0946
    204  CD2       -3.0050  -33.1840   -9.5780 C.ar   86  TRP86       0.0152
    205  NE1       -4.2850  -34.1190  -11.1700 N.ar   86  TRP86      -0.2442
    206  CE2       -4.3110  -33.2270  -10.1340 C.ar   86  TRP86       0.0810
    207  CE3       -2.7630  -32.3370   -8.4820 C.ar   86  TRP86       0.0012
    208  CZ2       -5.3650  -32.4500   -9.6440 C.ar   86  TRP86       0.0191
    209  CZ3       -3.8190  -31.5600   -7.9920 C.ar   86  TRP86       0.0001
    210  CH2       -5.1080  -31.6270   -8.5790 C.ar   86  TRP86       0.0015
    211  N         -6.5570  -29.4980   -2.6090 N.3   110  ALA110     -0.1245
    212  CA        -5.9640  -30.4970   -3.4930 C.3   110  ALA110      0.1562
    213  C         -5.0020  -31.4300   -2.7630 C.2   110  ALA110      0.2260
    214  O         -4.9640  -32.6220   -3.0570 O.2   110  ALA110     -0.2867
    215  CB        -5.2330  -29.8070   -4.6770 C.3   110  ALA110      0.0290
    216  N         -6.9830  -34.0060   -0.7320 N.3   113  ILE113     -0.1231
    217  CA        -7.4780  -35.0800   -1.6040 C.3   113  ILE113      0.1692
    218  C         -6.3610  -36.0160   -2.0780 C.2   113  ILE113      0.2591
    219  O         -6.5220  -37.2470   -2.0460 O.2   113  ILE113     -0.2718
    220  CB        -8.2900  -34.5220   -2.8160 C.3   113  ILE113      0.0266
    221  CG1       -9.5970  -33.8890   -2.3130 C.3   113  ILE113      0.0019
    222  CG2       -8.5390  -35.6410   -3.8410 C.3   113  ILE113      0.0020
    223  CD1      -10.1490  -32.8070   -3.1850 C.3   113  ILE113      0.0001
    224  N         -5.2440  -35.4370   -2.5170 N.am  114  ALA114     -0.1980
    225  CA        -4.1170  -36.2260   -3.0420 C.3   114  ALA114      0.1597
    226  C         -3.5810  -37.1730   -1.9690 C.2   114  ALA114      0.2287
    227  O         -3.2700  -38.3390   -2.2250 O.2   114  ALA114     -0.2864
    228  CB        -3.0010  -35.3110   -3.5540 C.3   114  ALA114      0.0319
    229  N         -6.1410  -39.9980   -1.6380 N.3   117  PHE117     -0.1241
    230  CA        -5.9340  -40.9210   -2.7630 C.3   117  PHE117      0.1605
    231  C         -4.7110  -41.8120   -2.5350 C.2   117  PHE117      0.2264
    232  O         -4.7720  -43.0130   -2.7660 O.2   117  PHE117     -0.2867
    233  CB        -5.7590  -40.1640   -4.0990 C.3   117  PHE117      0.0534
    234  CG        -7.0410  -39.6010   -4.6750 C.ar  117  PHE117     -0.0203
    235  CD1       -7.0070  -38.8600   -5.8500 C.ar  117  PHE117     -0.0042
    236  CD2       -8.2780  -39.7980   -4.0480 C.ar  117  PHE117     -0.0042
    237  CE1       -8.1770  -38.3240   -6.3950 C.ar  117  PHE117     -0.0003
    238  CE2       -9.4500  -39.2580   -4.5880 C.ar  117  PHE117     -0.0003
    239  CZ        -9.3920  -38.5260   -5.7630 C.ar  117  PHE117     -0.0000
@<TRIPOS>BOND
     1    48    47    2
     2    47    46    1
     3    46    45    1
     4    46    49    1
     5    50    52    1
     6    50    49    1
     7    45    42   am
     8    49    51    1
     9    40    41    1
    10    43    42    2
    11    42    41    1
    12    32    31    2
    13    31    30    1
    14    41    44    1
    15    53    54    1
    16     4     3    2
    17    21    22    1
    18    30    33    1
    19    30    29    1
    20     3     2    1
    21    57    54    1
    22    57    58    1
    23    33    34    1
    24    24    23    2
    25    29    23   am
    26    54    55    1
    27    23    22    1
    28    22    25    1
    29    16    15    2
    30    15    14    1
    31     5     2    1
    32     5     6    1
    33    55    56    2
    34    58    59   ar
    35    58    60   ar
    36     2     1    1
    37    34    36   ar
    38    34    35   ar
    39    59    61   ar
    40    60    62   ar
    41    36    38   ar
    42    25    26    1
    43    25    27    1
    44    13    14    1
    45    14    17    1
    46     6     8   ar
    47     6     7   ar
    48    71    70    1
    49    35    37   ar
    50    26    28    1
    51    63    64    1
    52    61    62   ar
    53     8    10   ar
    54    17    18    1
    55    70    69    1
    56     7     9   ar
    57    38    39   ar
    58    67    64    1
    59    67    68    1
    60    37    39   ar
    61    64    65    1
    62   145   144    1
    63    10    11   ar
    64   163   161    1
    65    69    68    1
    66     9    11   ar
    67    18    19    1
    68    18    20    1
    69    11    12    1
    70   183   185   ar
    71   183   181   ar
    72    72    65   am
    73    72    73    1
    74   185   184   ar
    75    65    66    2
    76    77    76    1
    77    77    79    1
    78   144   143    1
    79   161   160    1
    80   161   162    1
    81   158   157    1
    82   158   159    2
    83   157   160    1
    84   157   156    1
    85    76    73    1
    86    76    78    1
    87   181   180   ar
    88   184   182   ar
    89    73    74    1
    90   143   142    1
    91   168   165    1
    92   168   169    1
    93    74    75    2
    94   180   182   ar
    95   180   179    1
    96   165   164    1
    97   165   166    1
    98   170   169   ar
    99   170   172   ar
   100   169   171   ar
   101   142   141    1
   102   140   139    2
   103   172   174   ar
   104   203   205   ar
   105   203   202   ar
   106   179   176    1
   107   141   138    1
   108   205   206   ar
   109   112   114   ar
   110   112   110   ar
   111   171   173   ar
   112   166   167    2
   113   114   115   ar
   114   139   138    1
   115   139   146   am
   116   138   137    1
   117   105   106    1
   118   198   197    1
   119   198   201    1
   120   198   199    1
   121    80    81    1
   122   106   109    1
   123   106   107    1
   124   174   173   ar
   125   202   201    1
   126   202   204   ar
   127   176   177    1
   128   176   175    1
   129   155   153   ar
   130   155   154   ar
   131   206   208   ar
   132   206   204   ar
   133   200   199    2
   134   178   177    2
   135   153   151   ar
   136   109   110    1
   137   149   148    2
   138   110   111   ar
   139   146   147    1
   140   118   117    1
   141   118   119    1
   142   147   148    1
   143   147   150    1
   144    97    99   ar
   145    97    96   ar
   146   154   152   ar
   147   115   116    1
   148   115   113   ar
   149   208   210   ar
   150   107   108    2
   151   204   207   ar
   152    84    81    1
   153    84    85    1
   154   177   186   am
   155   151   152   ar
   156   151   150    1
   157    99   100   ar
   158    81    82    1
   159    91    82   am
   160    91    92    1
   161    95    96    1
   162    95    92    1
   163    96    98   ar
   164   121   119   am
   165   121   122    1
   166   111   113   ar
   167   210   209   ar
   168   119   120    2
   169   207   209   ar
   170    82    83    2
   171    85    87   ar
   172    85    86   ar
   173   124   123    2
   174   186   187    1
   175    92    93    1
   176   133   132    2
   177    87    89   ar
   178   100    98   ar
   179   100   102   ar
   180   129   127   am
   181   123   122    1
   182   123   130   am
   183    93    94    2
   184   131   130    1
   185   131   132    1
   186   131   134    1
   187    98   101   ar
   188   122   125    1
   189    86    88   ar
   190   187   188    1
   191   187   190    1
   192   125   126    1
   193   130   136    1
   194   188   189    2
   195   102   104   ar
   196   134   135    1
   197   126   127    1
   198    89    90   ar
   199   194   196   ar
   200   194   192   ar
   201   127   128    2
   202   135   136    1
   203   196   195   ar
   204   192   191   ar
   205   237   235   ar
   206   237   239   ar
   207   195   193   ar
   208   191   193   ar
   209   191   190    1
   210    88    90   ar
   211   101   103   ar
   212   235   234   ar
   213   239   238   ar
   214   104   103   ar
   215   215   212    1
   216   234   233    1
   217   234   236   ar
   218   238   236   ar
   219   233   230    1
   220   222   220    1
   221   228   225    1
   222   212   213    1
   223   212   211    1
   224   223   221    1
   225   214   213    2
   226   225   224    1
   227   225   226    1
   228   220   221    1
   229   220   217    1
   230   232   231    2
   231   230   231    1
   232   230   229    1
   233   224   218   am
   234   227   226    2
   235   218   219    2
   236   218   217    1
   237   217   216    1
