@<TRIPOS>MOLECULE
tmp/2ig6A00.pdb
 122 117 0 0 0
SMALL
GASTEIGER

@<TRIPOS>ATOM
      1  N         28.0700   50.7460   18.7700 N.3    24  VAL24      -0.1245
      2  CA        29.5140   50.8720   18.8020 C.3    24  VAL24       0.1561
      3  C         29.8780   52.2400   18.2370 C.2    24  VAL24       0.2260
      4  O         29.2380   52.7390   17.2910 O.2    24  VAL24      -0.2867
      5  CB        30.2390   49.7130   18.0530 C.3    24  VAL24       0.0252
      6  CG1       29.9700   49.7390   16.5500 C.3    24  VAL24       0.0019
      7  CG2       31.7210   49.7710   18.3270 C.3    24  VAL24       0.0019
      8  N         45.4270   57.4510   17.5180 N.3    36  ARG36      -0.1245
      9  CA        44.9450   56.1340   17.8910 C.3    36  ARG36       0.1563
     10  C         43.4200   56.1350   17.8700 C.2    36  ARG36       0.2260
     11  O         42.7950   57.1260   18.2420 O.2    36  ARG36      -0.2867
     12  CB        45.4100   55.8090   19.3020 C.3    36  ARG36       0.0307
     13  CG        46.9060   55.7100   19.5040 C.3    36  ARG36       0.0489
     14  CD        47.5180   54.5770   18.7150 C.3    36  ARG36       0.2205
     15  NE        48.9010   54.3540   19.0890 N.pl3  36  ARG36      -0.0865
     16  CZ        49.7060   53.4970   18.4770 C.cat  36  ARG36       0.5346
     17  NH1       49.2550   52.7510   17.4850 N.pl3  36  ARG36       0.1354
     18  NH2       50.9640   53.3470   18.8800 N.pl3  36  ARG36       0.1354
     19  N         39.9210   53.2150   18.3790 N.3    38  ARG38      -0.1231
     20  CA        39.4360   51.8800   18.7310 C.3    38  ARG38       0.1679
     21  C         37.9440   51.9520   19.0020 C.2    38  ARG38       0.2434
     22  O         37.4420   53.0260   19.3180 O.2    38  ARG38      -0.2733
     23  CB        40.1820   51.3250   19.9530 C.3    38  ARG38       0.0321
     24  CG        39.7080   51.8450   21.3030 C.3    38  ARG38       0.0489
     25  CD        40.1920   53.2560   21.5380 C.3    38  ARG38       0.2205
     26  NE        41.6330   53.3070   21.7400 N.pl3  38  ARG38      -0.0865
     27  CZ        42.4050   54.3920   21.6650 C.cat  38  ARG38       0.5346
     28  NH1       41.9150   55.5740   21.3350 N.pl3  38  ARG38       0.1354
     29  NH2       43.6800   54.2930   21.9600 N.pl3  38  ARG38       0.1354
     30  N         37.2380   50.8170   18.8720 N.am   39  PRO39      -0.2718
     31  CA        35.8120   50.8060   19.1920 C.3    39  PRO39       0.1535
     32  C         35.5570   50.9130   20.6980 C.2    39  PRO39       0.2599
     33  O         36.2840   50.3260   21.5160 O.2    39  PRO39      -0.2715
     34  CB        35.3390   49.4540   18.6510 C.3    39  PRO39       0.0310
     35  CG        36.5210   48.6000   18.5960 C.3    39  PRO39       0.0237
     36  CD        37.7020   49.4990   18.3920 C.3    39  PRO39       0.0939
     37  N         34.5600   51.7210   21.0460 N.am   40  PHE40      -0.1960
     38  CA        34.0200   51.8410   22.4020 C.3    40  PHE40       0.1771
     39  C         32.5140   51.5660   22.3070 C.2    40  PHE40       0.2620
     40  O         31.9180   51.6400   21.2350 O.2    40  PHE40      -0.2715
     41  CB        34.2630   53.2550   22.9700 C.3    40  PHE40       0.0574
     42  CG        35.4450   53.3650   23.9120 C.ar   40  PHE40      -0.0200
     43  CD1       36.6410   52.7150   23.6690 C.ar   40  PHE40      -0.0042
     44  CD2       35.3550   54.1550   25.0510 C.ar   40  PHE40      -0.0042
     45  CE1       37.7150   52.8330   24.5540 C.ar   40  PHE40      -0.0003
     46  CE2       36.4230   54.3070   25.8960 C.ar   40  PHE40      -0.0003
     47  CZ        37.5980   53.6230   25.6780 C.ar   40  PHE40      -0.0000
     48  N         31.8650   51.2540   23.4120 N.am   41  GLY41      -0.1940
     49  CA        30.4630   50.8680   23.2960 C.3    41  GLY41       0.2014
     50  C         29.5670   51.0780   24.4930 C.2    41  GLY41       0.2638
     51  O         28.4700   50.5670   24.5070 O.2    41  GLY41      -0.2714
     52  N         30.0220   51.8230   25.4780 N.am   42  ALA42      -0.1977
     53  CA        29.2310   52.0070   26.7010 C.3    42  ALA42       0.1597
     54  C         29.2000   53.4950   26.9110 C.2    42  ALA42       0.2287
     55  O         30.2320   54.1600   26.8020 O.2    42  ALA42      -0.2864
     56  CB        29.8740   51.3020   27.8780 C.3    42  ALA42       0.0319
     57  N         33.5080   54.6180   29.5770 N.3    53  VAL53      -0.1231
     58  CA        34.1860   53.7920   30.5500 C.3    53  VAL53       0.1692
     59  C         35.4450   53.2200   29.9370 C.2    53  VAL53       0.2592
     60  O         35.5560   53.0610   28.7120 O.2    53  VAL53      -0.2718
     61  CB        33.2600   52.6550   31.1280 C.3    53  VAL53       0.0266
     62  CG1       31.9280   53.2190   31.5920 C.3    53  VAL53       0.0020
     63  CG2       33.0370   51.5500   30.1260 C.3    53  VAL53       0.0020
     64  N         36.4050   52.9180   30.7930 N.am   54  SER54      -0.1952
     65  CA        37.5980   52.2150   30.3800 C.3    54  SER54       0.1924
     66  C         38.2350   51.5330   31.5940 C.2    54  SER54       0.2314
     67  O         37.5730   51.2300   32.5660 O.2    54  SER54      -0.2863
     68  CB        38.5950   53.1530   29.6540 C.3    54  SER54       0.2116
     69  OG        39.4480   52.4080   28.7960 O.3    54  SER54      -0.2180
     70  N         44.9240   50.3570   30.5450 N.3    58  LYS58      -0.1231
     71  CA        44.9620   50.3790   29.0770 C.3    58  LYS58       0.1693
     72  C         45.6670   51.6040   28.5130 C.2    58  LYS58       0.2592
     73  O         45.6280   52.6880   29.1040 O.2    58  LYS58      -0.2718
     74  CB        43.5480   50.3670   28.5010 C.3    58  LYS58       0.0285
     75  CG        42.7780   49.0780   28.7100 C.3    58  LYS58       0.0035
     76  CD        41.4310   49.2370   28.0020 C.3    58  LYS58       0.0206
     77  CE        40.5080   48.0440   28.1380 C.3    58  LYS58       0.1093
     78  NZ        39.3120   48.2250   27.2500 N.3    58  LYS58      -0.1314
     79  N         46.2780   51.4350   27.3400 N.am   59  LYS59      -0.1966
     80  CA        46.9200   52.5370   26.6380 C.3    59  LYS59       0.1728
     81  C         45.9360   53.6820   26.3570 C.2    59  LYS59       0.2616
     82  O         46.2860   54.8550   26.4910 O.2    59  LYS59      -0.2715
     83  CB        47.5670   52.0510   25.3100 C.3    59  LYS59       0.0311
     84  CG        48.7620   51.1470   25.4720 C.3    59  LYS59       0.0038
     85  CD        49.3120   50.7440   24.1110 C.3    59  LYS59       0.0206
     86  CE        49.7680   51.9580   23.3230 C.3    59  LYS59       0.1093
     87  NZ        50.3140   51.6050   21.9810 N.3    59  LYS59      -0.1314
     88  N         44.7110   53.3500   25.9770 N.am   60  CYS60      -0.1968
     89  CA        43.7280   54.3770   25.6560 C.3    60  CYS60       0.1712
     90  C         43.4600   55.2840   26.8630 C.2    60  CYS60       0.2296
     91  O         43.3670   56.4960   26.7080 O.2    60  CYS60      -0.2864
     92  CB        42.4260   53.7830   25.0970 C.3    60  CYS60       0.0983
     93  SG        41.4880   52.6790   26.1890 S.3    60  CYS60      -0.0798
     94  N         46.4850   57.5000   27.4930 N.3    63  GLN63      -0.1245
     95  CA        46.4850   58.5540   26.4600 C.3    63  GLN63       0.1566
     96  C         45.5330   59.6840   26.8210 C.2    63  GLN63       0.2260
     97  O         45.8520   60.8520   26.6100 O.2    63  GLN63      -0.2867
     98  CB        46.1500   57.9640   25.0900 C.3    63  GLN63       0.0367
     99  CG        47.2960   57.0960   24.5520 C.3    63  GLN63       0.0905
    100  CD        46.8790   56.1100   23.5020 C.2    63  GLN63       0.2608
    101  OE1       45.8120   56.2250   22.8950 O.2    63  GLN63      -0.2717
    102  NE2       47.7350   55.1100   23.2700 N.am   63  GLN63      -0.0878
    103  N         28.5870   45.5970   31.8680 N.3   105  LEU105     -0.1245
    104  CA        29.9400   45.9230   32.3510 C.3   105  LEU105      0.1561
    105  C         30.3820   45.0300   33.4970 C.2   105  LEU105      0.2260
    106  O         31.5730   44.8210   33.7020 O.2   105  LEU105     -0.2867
    107  CB        30.0090   47.3820   32.8110 C.3   105  LEU105      0.0270
    108  CG        29.9720   48.4030   31.6550 C.3   105  LEU105      0.0019
    109  CD1       29.9240   49.8100   32.2410 C.3   105  LEU105      0.0001
    110  CD2       31.1320   48.2570   30.6970 C.3   105  LEU105      0.0001
    111  N         34.0160   44.1980   35.0310 N.3   108  TYR108     -0.1241
    112  CA        34.4060   45.1760   36.0310 C.3   108  TYR108      0.1605
    113  C         33.5900   45.0330   37.2960 C.2   108  TYR108      0.2264
    114  O         32.4820   44.5240   37.2580 O.2   108  TYR108     -0.2867
    115  CB        34.2320   46.5860   35.4760 C.3   108  TYR108      0.0534
    116  CG        35.1420   46.8440   34.2910 C.ar  108  TYR108     -0.0201
    117  CD1       36.5200   46.8010   34.4430 C.ar  108  TYR108     -0.0009
    118  CD2       34.6220   47.0850   33.0230 C.ar  108  TYR108     -0.0009
    119  CE1       37.3670   47.0080   33.3760 C.ar  108  TYR108      0.0417
    120  CE2       35.4580   47.3000   31.9480 C.ar  108  TYR108      0.0417
    121  CZ        36.8320   47.2640   32.1310 C.ar  108  TYR108      0.1957
    122  OH        37.6800   47.4510   31.0750 O.3   108  TYR108     -0.2866
@<TRIPOS>BOND
     1     6     5    1
     2     4     3    2
     3    17    16    1
     4     8     9    1
     5    10     9    1
     6    10    11    2
     7     9    12    1
     8     5     7    1
     9     5     2    1
    10     3     2    1
    11    19    20    1
    12    36    35    1
    13    36    30    1
    14    16    18    1
    15    16    15    2
    16    35    34    1
    17    34    31    1
    18    14    15    1
    19    14    13    1
    20    20    21    1
    21    20    23    1
    22     1     2    1
    23    30    21   am
    24    30    31    1
    25    21    22    2
    26    31    32    1
    27    12    13    1
    28    23    24    1
    29    32    37   am
    30    32    33    2
    31    37    38    1
    32    40    39    2
    33    24    25    1
    34    28    27    1
    35    25    26    1
    36    27    26    2
    37    27    29    1
    38    87    86    1
    39    39    38    1
    40    39    48   am
    41    38    41    1
    42   101   100    2
    43    41    42    1
    44   102   100   am
    45    49    48    1
    46    49    50    1
    47    86    85    1
    48   100    99    1
    49    43    42   ar
    50    43    45   ar
    51    42    44   ar
    52    85    84    1
    53    50    51    2
    54    50    52   am
    55    99    98    1
    56    45    47   ar
    57    44    46   ar
    58    98    95    1
    59    92    89    1
    60    92    93    1
    61    83    84    1
    62    83    80    1
    63    52    53    1
    64    89    88    1
    65    89    90    1
    66    47    46   ar
    67    88    81   am
    68    81    82    2
    69    81    80    1
    70    95    96    1
    71    95    94    1
    72    97    96    2
    73    80    79    1
    74    53    54    1
    75    53    56    1
    76    91    90    2
    77    55    54    2
    78    78    77    1
    79    79    72   am
    80    76    77    1
    81    76    75    1
    82    74    75    1
    83    74    71    1
    84    72    71    1
    85    72    73    2
    86    60    59    2
    87    69    68    1
    88    71    70    1
    89    57    58    1
    90    68    65    1
    91    59    58    1
    92    59    64   am
    93    63    61    1
    94    65    64    1
    95    65    66    1
    96    58    61    1
    97   110   108    1
    98   122   121    1
    99    61    62    1
   100    66    67    2
   101   108   109    1
   102   108   107    1
   103   103   104    1
   104   120   121   ar
   105   120   118   ar
   106   121   119   ar
   107   104   107    1
   108   104   105    1
   109   118   116   ar
   110   119   117   ar
   111   105   106    2
   112   116   117   ar
   113   116   115    1
   114   111   112    1
   115   115   112    1
   116   112   113    1
   117   114   113    2
