@<TRIPOS>MOLECULE
tmp/2igaA00.pdb
 155 152 0 0 0
SMALL
GASTEIGER

@<TRIPOS>ATOM
      1  N         13.4280  -27.4930    4.4270 N.3   152  HIS152     -0.1241
      2  CA        12.7120  -26.3210    3.8980 C.3   152  HIS152      0.1621
      3  C         12.9700  -25.0590    4.6950 C.2   152  HIS152      0.2264
      4  O         13.5690  -25.1180    5.7660 O.2   152  HIS152     -0.2867
      5  CB        11.1760  -26.5640    3.8560 C.3   152  HIS152      0.0745
      6  CG        10.5340  -26.6720    5.2110 C.ar  152  HIS152      0.0817
      7  ND1       10.2560  -27.8860    5.8090 N.ar  152  HIS152     -0.2268
      8  CD2       10.1650  -25.7200    6.1100 C.ar  152  HIS152      0.1154
      9  CE1        9.6910  -27.6720    6.9870 C.ar  152  HIS152      0.1986
     10  NE2        9.5740  -26.3720    7.1690 N.ar  152  HIS152     -0.2212
     11  N         10.7100  -21.3140    5.8350 N.3   154  ASN154     -0.1240
     12  CA         9.3840  -20.8030    5.9180 C.3   154  ASN154      0.1653
     13  C          9.5240  -19.3030    6.1010 C.2   154  ASN154      0.2266
     14  O         10.2310  -18.8670    7.0230 O.2   154  ASN154     -0.2867
     15  CB         8.6510  -21.4350    7.1150 C.3   154  ASN154      0.1155
     16  CG         7.1440  -21.0170    7.2010 C.2   154  ASN154      0.2627
     17  OD1        6.8280  -19.8300    7.2440 O.2   154  ASN154     -0.2716
     18  ND2        6.2240  -22.0180    7.2340 N.am  154  ASN154     -0.0877
     19  N          2.0210  -23.8440    1.3730 N.3   189  TRP189     -0.1241
     20  CA         3.1890  -24.7460    1.3020 C.3   189  TRP189      0.1605
     21  C          3.4460  -25.1350   -0.1490 C.2   189  TRP189      0.2264
     22  O          2.5300  -25.5650   -0.8400 O.2   189  TRP189     -0.2867
     23  CB         2.9200  -26.0530    2.0880 C.3   189  TRP189      0.0550
     24  CG         3.0000  -25.9090    3.5560 C.ar  189  TRP189      0.0003
     25  CD1        4.0280  -26.3130    4.3690 C.ar  189  TRP189      0.0946
     26  CD2        2.0310  -25.2810    4.4130 C.ar  189  TRP189      0.0152
     27  NE1        3.7490  -25.9820    5.6900 N.ar  189  TRP189     -0.2442
     28  CE2        2.5390  -25.3340    5.7380 C.ar  189  TRP189      0.0810
     29  CE3        0.7770  -24.6930    4.1920 C.ar  189  TRP189      0.0012
     30  CZ2        1.8280  -24.8150    6.8480 C.ar  189  TRP189      0.0191
     31  CZ3        0.0830  -24.1670    5.2800 C.ar  189  TRP189      0.0001
     32  CH2        0.6090  -24.2490    6.6030 C.ar  189  TRP189      0.0015
     33  N          7.1850  -29.4310    0.8480 N.3   197  HIS197     -0.1241
     34  CA         7.6830  -28.0790    0.5700 C.3   197  HIS197      0.1621
     35  C          9.2080  -27.9110    0.5410 C.2   197  HIS197      0.2264
     36  O          9.9780  -28.7960    1.0220 O.2   197  HIS197     -0.2867
     37  CB         6.9350  -26.9940    1.3840 C.3   197  HIS197      0.0745
     38  CG         7.1350  -27.0540    2.8650 C.ar  197  HIS197      0.0817
     39  ND1        7.0210  -28.2180    3.6020 N.ar  197  HIS197     -0.2268
     40  CD2        7.4070  -26.0720    3.7530 C.ar  197  HIS197      0.1154
     41  CE1        7.2300  -27.9460    4.8760 C.ar  197  HIS197      0.1986
     42  NE2        7.4470  -26.6500    4.9970 N.ar  197  HIS197     -0.2212
     43  N         11.3510  -19.7660    9.8560 N.3   211  HIS211     -0.1241
     44  CA        12.2700  -20.8370   10.2670 C.3   211  HIS211      0.1621
     45  C         13.0670  -21.5030    9.1370 C.2   211  HIS211      0.2264
     46  O         12.8090  -21.2610    7.9640 O.2   211  HIS211     -0.2867
     47  CB        11.5400  -21.8990   11.1230 C.3   211  HIS211      0.0745
     48  CG        10.3420  -22.5340   10.4640 C.ar  211  HIS211      0.0817
     49  ND1        9.0540  -22.0610   10.6390 N.ar  211  HIS211     -0.2268
     50  CD2       10.2330  -23.6490    9.6920 C.ar  211  HIS211      0.1154
     51  CE1        8.2060  -22.8510    9.9910 C.ar  211  HIS211      0.1986
     52  NE2        8.8970  -23.8310    9.4130 N.ar  211  HIS211     -0.2212
     53  N          7.9230  -24.8160   20.8310 N.3   240  ARG240     -0.1245
     54  CA         6.6350  -25.4410   20.5220 C.3   240  ARG240      0.1563
     55  C          6.8830  -26.8950   20.0880 C.2   240  ARG240      0.2260
     56  O          7.7980  -27.1780   19.3050 O.2   240  ARG240     -0.2867
     57  CB         5.8980  -24.6390   19.4200 C.3   240  ARG240      0.0307
     58  CG         4.7050  -25.3190   18.8230 C.3   240  ARG240      0.0489
     59  CD         3.9810  -24.5080   17.7190 C.3   240  ARG240      0.2205
     60  NE         3.0550  -25.4520   17.0980 N.pl3 240  ARG240     -0.0865
     61  CZ         2.7320  -25.5720   15.8220 C.cat 240  ARG240      0.5346
     62  NH1        3.1860  -24.7310   14.9170 N.pl3 240  ARG240      0.1354
     63  NH2        1.9450  -26.5950   15.4670 N.pl3 240  ARG240      0.1354
     64  N          2.1100  -32.5760   12.8410 N.3   245  HIS245     -0.1241
     65  CA         1.4390  -31.5220   12.0610 C.3   245  HIS245      0.1621
     66  C          0.1430  -32.0650   11.3890 C.2   245  HIS245      0.2264
     67  O          0.0360  -33.2780   11.0760 O.2   245  HIS245     -0.2867
     68  CB         2.3630  -31.0230   10.9270 C.3   245  HIS245      0.0745
     69  CG         3.4240  -30.0440   11.3360 C.ar  245  HIS245      0.0817
     70  ND1        3.1700  -28.9340   12.1210 N.ar  245  HIS245     -0.2268
     71  CD2        4.7360  -29.9740   11.0040 C.ar  245  HIS245      0.1154
     72  CE1        4.2890  -28.2470   12.2780 C.ar  245  HIS245      0.1986
     73  NE2        5.2520  -28.8590   11.6140 N.ar  245  HIS245     -0.2212
     74  N         -1.4030  -30.1630    8.4420 N.3   247  VAL247     -0.1231
     75  CA        -0.6440  -29.8320    7.2260 C.3   247  VAL247      0.1692
     76  C          0.7490  -30.4940    7.2250 C.2   247  VAL247      0.2592
     77  O          1.5610  -30.2960    8.1700 O.2   247  VAL247     -0.2718
     78  CB        -0.4260  -28.3370    7.1020 C.3   247  VAL247      0.0266
     79  CG1        0.3370  -28.0490    5.8450 C.3   247  VAL247      0.0020
     80  CG2       -1.7450  -27.5900    7.0850 C.3   247  VAL247      0.0020
     81  N          1.0080  -31.2580    6.1640 N.am  248  SER248     -0.1952
     82  CA         2.3130  -31.9330    5.9080 C.3   248  SER248      0.1924
     83  C          2.3510  -33.3040    6.5330 C.2   248  SER248      0.2314
     84  O          3.0100  -34.1890    5.9670 O.2   248  SER248     -0.2863
     85  CB         3.5660  -31.1110    6.3130 C.3   248  SER248      0.2116
     86  OG         3.8450  -31.2380    7.7240 O.3   248  SER248     -0.2180
     87  N          9.8480  -27.2640   17.3520 N.3   254  TYR254     -0.1241
     88  CA        10.4360  -25.9240   17.1060 C.3   254  TYR254      0.1605
     89  C         11.3120  -25.5120   18.2540 C.2   254  TYR254      0.2264
     90  O         10.8970  -25.5470   19.4350 O.2   254  TYR254     -0.2867
     91  CB         9.3470  -24.8330   16.8820 C.3   254  TYR254      0.0534
     92  CG         8.4480  -25.1200   15.7040 C.ar  254  TYR254     -0.0201
     93  CD1        8.8740  -24.8310   14.4180 C.ar  254  TYR254     -0.0009
     94  CD2        7.2040  -25.7190   15.8720 C.ar  254  TYR254     -0.0009
     95  CE1        8.0980  -25.1210   13.3070 C.ar  254  TYR254      0.0417
     96  CE2        6.3920  -26.0150   14.7490 C.ar  254  TYR254      0.0417
     97  CZ         6.8460  -25.6710   13.4790 C.ar  254  TYR254      0.1957
     98  OH         6.1070  -25.9390   12.3430 O.3   254  TYR254     -0.2866
     99  N         13.2280  -25.6670   13.0540 N.3   264  GLU264     -0.1245
    100  CA        12.2840  -26.7690   13.1380 C.3   264  GLU264      0.1567
    101  C         13.0220  -28.1140   12.8490 C.2   264  GLU264      0.2260
    102  O         13.9650  -28.1770   12.0370 O.2   264  GLU264     -0.2867
    103  CB        11.1230  -26.5880   12.1240 C.3   264  GLU264      0.0388
    104  CG        10.0280  -27.6670   12.2190 C.3   264  GLU264      0.1160
    105  CD         8.9650  -27.6090   11.1460 C.2   264  GLU264      0.3649
    106  OE1        9.0990  -26.7280   10.2680 O.co2 264  GLU264     -0.2457
    107  OE2        7.9670  -28.4350   11.1720 O.co2 264  GLU264     -0.2457
    108  N         11.9870  -32.1230   11.7500 N.3   266  TYR266     -0.1241
    109  CA        10.8470  -32.4980   10.9310 C.3   266  TYR266      0.1605
    110  C         11.0900  -33.9170   10.3880 C.2   266  TYR266      0.2264
    111  O         12.1960  -34.2290   10.0070 O.2   266  TYR266     -0.2867
    112  CB        10.8580  -31.4760    9.7990 C.3   266  TYR266      0.0534
    113  CG         9.7810  -31.5320    8.7530 C.ar  266  TYR266     -0.0201
    114  CD1        8.6270  -30.7450    8.8800 C.ar  266  TYR266     -0.0009
    115  CD2        9.9430  -32.2930    7.6110 C.ar  266  TYR266     -0.0009
    116  CE1        7.6560  -30.7550    7.9020 C.ar  266  TYR266      0.0417
    117  CE2        8.9930  -32.2890    6.6250 C.ar  266  TYR266      0.0417
    118  CZ         7.8480  -31.5160    6.7770 C.ar  266  TYR266      0.1957
    119  OH         6.8990  -31.5090    5.7740 O.3   266  TYR266     -0.2866
    120  N         -5.3030  -28.6580   12.4470 N.3   289  ARG289     -0.1231
    121  CA        -4.5370  -28.3000   11.2390 C.3   289  ARG289      0.1694
    122  C         -3.0270  -28.0740   11.4320 C.2   289  ARG289      0.2591
    123  O         -2.2290  -28.3290   10.5350 O.2   289  ARG289     -0.2718
    124  CB        -5.1810  -27.1020   10.5330 C.3   289  ARG289      0.0321
    125  CG        -4.7200  -25.7560   11.1390 C.3   289  ARG289      0.0489
    126  CD        -5.6610  -24.5860   10.8940 C.3   289  ARG289      0.2205
    127  NE        -5.1200  -23.4450   11.6510 N.pl3 289  ARG289     -0.0865
    128  CZ        -5.2750  -23.2770   12.9650 C.cat 289  ARG289      0.5346
    129  NH1       -5.9700  -24.1920   13.6900 N.pl3 289  ARG289      0.1354
    130  NH2       -4.6980  -22.2070   13.5600 N.pl3 289  ARG289      0.1354
    131  N         -2.6370  -27.5150   12.5760 N.am  290  ARG290     -0.1980
    132  CA        -1.2600  -27.1790   12.8270 C.3   290  ARG290      0.1597
    133  C         -0.6420  -28.2440   13.7450 C.2   290  ARG290      0.2287
    134  O          0.4430  -28.7700   13.4590 O.2   290  ARG290     -0.2864
    135  CB        -1.1230  -25.7360   13.3920 C.3   290  ARG290      0.0334
    136  CG        -1.2910  -24.6630   12.2880 C.3   290  ARG290      0.0492
    137  CD        -0.6050  -23.2750   12.6310 C.3   290  ARG290      0.2205
    138  NE        -0.7490  -22.3100   11.5220 N.pl3 290  ARG290     -0.0865
    139  CZ         0.0800  -22.2210   10.4750 C.cat 290  ARG290      0.5346
    140  NH1        1.1050  -23.0390   10.3720 N.pl3 290  ARG290      0.1354
    141  NH2       -0.1100  -21.3100    9.5200 N.pl3 290  ARG290      0.1354
    142  N          4.8230  -18.2540   18.2070 N.3   301  TRP301     -0.1241
    143  CA         4.9620  -18.9020   16.8950 C.3   301  TRP301      0.1605
    144  C          4.3470  -17.9970   15.8620 C.2   301  TRP301      0.2264
    145  O          4.8200  -17.9470   14.7400 O.2   301  TRP301     -0.2867
    146  CB         4.2980  -20.3220   16.9100 C.3   301  TRP301      0.0550
    147  CG         4.7990  -21.1840   15.8410 C.ar  301  TRP301      0.0003
    148  CD1        5.8690  -22.0380   15.9070 C.ar  301  TRP301      0.0946
    149  CD2        4.2730  -21.2960   14.5140 C.ar  301  TRP301      0.0152
    150  NE1        6.0490  -22.6500   14.6880 N.ar  301  TRP301     -0.2442
    151  CE2        5.0760  -22.2240   13.8210 C.ar  301  TRP301      0.0810
    152  CE3        3.2010  -20.6910   13.8390 C.ar  301  TRP301      0.0012
    153  CZ2        4.8600  -22.5620   12.4800 C.ar  301  TRP301      0.0191
    154  CZ3        2.9940  -21.0300   12.5000 C.ar  301  TRP301      0.0001
    155  CH2        3.8200  -21.9690   11.8450 C.ar  301  TRP301      0.0015
@<TRIPOS>BOND
     1    22    21    2
     2    21    20    1
     3    35    34    1
     4    35    36    2
     5    34    33    1
     6    34    37    1
     7    20    19    1
     8    20    23    1
     9    37    38    1
    10    23    24    1
    11    38    39   ar
    12    38    40   ar
    13    24    25   ar
    14    24    26   ar
    15    39    41   ar
    16    40    42   ar
    17     5     2    1
    18     5     6    1
    19     2     1    1
    20     2     3    1
    21    29    26   ar
    22    29    31   ar
    23    25    27   ar
    24    26    28   ar
    25     3     4    2
    26    41    42   ar
    27     6     7   ar
    28     6     8   ar
    29    31    32   ar
    30    27    28   ar
    31    28    30   ar
    32   119   118    1
    33     7     9   ar
    34    11    12    1
    35    79    78    1
    36    82    81    1
    37    82    85    1
    38    82    83    1
    39    12    13    1
    40    12    15    1
    41    84    83    2
    42    13    14    2
    43     8    10   ar
    44    81    76   am
    45    85    86    1
    46    32    30   ar
    47   117   118   ar
    48   117   115   ar
    49   118   116   ar
    50     9    10   ar
    51    80    78    1
    52    78    75    1
    53    15    16    1
    54    16    18   am
    55    16    17    2
    56    76    75    1
    57    76    77    2
    58    75    74    1
    59   115   113   ar
    60   116   114   ar
    61    46    45    2
    62   113   114   ar
    63   113   112    1
    64    45    44    1
    65    52    50   ar
    66    52    51   ar
    67   141   139    1
    68    50    48   ar
    69   112   109    1
    70    43    44    1
    71    51    49   ar
    72   111   110    2
    73    44    47    1
    74   106   105   ar
    75   140   139    1
    76   110   109    1
    77    48    49   ar
    78    48    47    1
    79   139   138    2
    80   124   125    1
    81   124   121    1
    82   123   122    2
    83   126   125    1
    84   126   127    1
    85    68    69    1
    86    68    65    1
    87   109   108    1
    88    71    69   ar
    89    71    73   ar
    90    67    66    2
    91   105   107   ar
    92   105   104    1
    93   121   122    1
    94   121   120    1
    95    69    70   ar
    96    66    65    1
    97   122   131   am
    98   138   137    1
    99    73    72   ar
   100   127   128    2
   101   155   153   ar
   102   155   154   ar
   103   102   101    2
   104    65    64    1
   105    70    72   ar
   106   103   104    1
   107   103   100    1
   108   136   137    1
   109   136   135    1
   110    98    97    1
   111   153   151   ar
   112   154   152   ar
   113   131   132    1
   114   132   135    1
   115   132   133    1
   116   101   100    1
   117   128   130    1
   118   128   129    1
   119    99   100    1
   120    95    97   ar
   121    95    93   ar
   122   134   133    2
   123    97    96   ar
   124   151   149   ar
   125   151   150   ar
   126   152   149   ar
   127    93    92   ar
   128   149   147   ar
   129   150   148   ar
   130   145   144    2
   131    96    94   ar
   132    62    61    1
   133    63    61    1
   134    92    94   ar
   135    92    91    1
   136    61    60    2
   137   147   148   ar
   138   147   146    1
   139   144   143    1
   140    91    88    1
   141   143   146    1
   142   143   142    1
   143    60    59    1
   144    88    87    1
   145    88    89    1
   146    59    58    1
   147    89    90    2
   148    58    57    1
   149    56    55    2
   150    57    54    1
   151    55    54    1
   152    54    53    1
