@<TRIPOS>MOLECULE
tmp/2igaB00.pdb
 155 152 0 0 0
SMALL
GASTEIGER

@<TRIPOS>ATOM
      1  N         10.5080  -49.4670   -5.5440 N.3   152  HIS152     -0.1241
      2  CA        11.3020  -49.8410   -6.7040 C.3   152  HIS152      0.1621
      3  C         10.9900  -51.2320   -7.1940 C.2   152  HIS152      0.2264
      4  O         10.3060  -51.9840   -6.5320 O.2   152  HIS152     -0.2867
      5  CB        12.8190  -49.7120   -6.4630 C.3   152  HIS152      0.0745
      6  CG        13.3780  -50.5810   -5.3560 C.ar  152  HIS152      0.0817
      7  ND1       13.4520  -50.1610   -4.0430 N.ar  152  HIS152     -0.2268
      8  CD2       13.8890  -51.8460   -5.3760 C.ar  152  HIS152      0.1154
      9  CE1       14.0000  -51.1160   -3.3070 C.ar  152  HIS152      0.1986
     10  NE2       14.2790  -52.1460   -4.0900 N.ar  152  HIS152     -0.2212
     11  N         13.3730  -54.5480   -9.0910 N.3   154  ASN154     -0.1240
     12  CA        14.6980  -55.0470   -9.3040 C.3   154  ASN154      0.1653
     13  C         14.6330  -56.1580  -10.3200 C.2   154  ASN154      0.2266
     14  O         13.8460  -57.1070  -10.1540 O.2   154  ASN154     -0.2867
     15  CB        15.3260  -55.5430   -8.0110 C.3   154  ASN154      0.1155
     16  CG        16.8200  -55.7820   -8.1610 C.2   154  ASN154      0.2627
     17  OD1       17.2530  -56.5850   -9.0210 O.2   154  ASN154     -0.2716
     18  ND2       17.6220  -55.1000   -7.3280 N.am  154  ASN154     -0.0877
     19  N         22.1260  -49.6340   -9.7600 N.3   189  TRP189     -0.1241
     20  CA        20.8960  -48.9840   -9.2020 C.3   189  TRP189      0.1605
     21  C         20.6330  -47.6490   -9.9420 C.2   189  TRP189      0.2264
     22  O         21.5840  -46.8870  -10.1970 O.2   189  TRP189     -0.2867
     23  CB        21.0770  -48.6750   -7.6990 C.3   189  TRP189      0.0550
     24  CG        20.9500  -49.8780   -6.7810 C.ar  189  TRP189      0.0003
     25  CD1       19.9050  -50.1730   -5.9320 C.ar  189  TRP189      0.0946
     26  CD2       21.8990  -50.9660   -6.6430 C.ar  189  TRP189      0.0152
     27  NE1       20.1470  -51.3720   -5.2980 N.ar  189  TRP189     -0.2442
     28  CE2       21.3500  -51.8860   -5.7240 C.ar  189  TRP189      0.0810
     29  CE3       23.1440  -51.2550   -7.2420 C.ar  189  TRP189      0.0012
     30  CZ2       22.0260  -53.0820   -5.3400 C.ar  189  TRP189      0.0191
     31  CZ3       23.8260  -52.4390   -6.8530 C.ar  189  TRP189      0.0001
     32  CH2       23.2590  -53.3230   -5.9080 C.ar  189  TRP189      0.0015
     33  N         16.7410  -45.6480   -6.0640 N.3   197  HIS197     -0.1241
     34  CA        16.2800  -46.2110   -7.3340 C.3   197  HIS197      0.1621
     35  C         14.7740  -46.2200   -7.6030 C.2   197  HIS197      0.2264
     36  O         14.0040  -46.1780   -6.6730 O.2   197  HIS197     -0.2867
     37  CB        16.9270  -47.5890   -7.5950 C.3   197  HIS197      0.0745
     38  CG        16.7190  -48.5970   -6.5070 C.ar  197  HIS197      0.0817
     39  ND1       16.7200  -48.2760   -5.1630 N.ar  197  HIS197     -0.2268
     40  CD2       16.5780  -49.9470   -6.5760 C.ar  197  HIS197      0.1154
     41  CE1       16.5840  -49.3800   -4.4520 C.ar  197  HIS197      0.1986
     42  NE2       16.5200  -50.4080   -5.2840 N.ar  197  HIS197     -0.2212
     43  N         12.5640  -58.6240   -7.6390 N.3   211  HIS211     -0.1241
     44  CA        11.6190  -58.2920   -6.5810 C.3   211  HIS211      0.1621
     45  C         10.9370  -56.9500   -6.8510 C.2   211  HIS211      0.2264
     46  O         11.3760  -56.2000   -7.7590 O.2   211  HIS211     -0.2867
     47  CB        12.3040  -58.2870   -5.1760 C.3   211  HIS211      0.0745
     48  CG        13.4490  -57.3090   -5.0160 C.ar  211  HIS211      0.0817
     49  ND1       14.7760  -57.6470   -5.2340 N.ar  211  HIS211     -0.2268
     50  CD2       13.4530  -56.0050   -4.6560 C.ar  211  HIS211      0.1154
     51  CE1       15.5370  -56.5830   -5.0180 C.ar  211  HIS211      0.1986
     52  NE2       14.7610  -55.5760   -4.6660 N.ar  211  HIS211     -0.2212
     53  N         15.4690  -63.6120    3.6040 N.3   240  ARG240     -0.1245
     54  CA        16.7620  -63.0250    3.9220 C.3   240  ARG240      0.1563
     55  C         16.5040  -61.6940    4.6410 C.2   240  ARG240      0.2260
     56  O         15.6470  -60.8950    4.2110 O.2   240  ARG240     -0.2867
     57  CB        17.5660  -62.7320    2.6160 C.3   240  ARG240      0.0307
     58  CG        18.6100  -61.6250    2.8270 C.3   240  ARG240      0.0489
     59  CD        19.5120  -61.3420    1.6150 C.3   240  ARG240      0.2205
     60  NE        20.4530  -60.2830    1.9730 N.pl3 240  ARG240     -0.0865
     61  CZ        20.8960  -59.3170    1.1640 C.cat 240  ARG240      0.5346
     62  NH1       20.5040  -59.2410   -0.1130 N.pl3 240  ARG240      0.1354
     63  NH2       21.7150  -58.4180    1.6630 N.pl3 240  ARG240      0.1354
     64  N         21.3710  -52.4490    4.3290 N.3   245  HIS245     -0.1241
     65  CA        22.0900  -52.5560    3.0790 C.3   245  HIS245      0.1621
     66  C         23.3840  -51.6760    3.1480 C.2   245  HIS245      0.2264
     67  O         23.3970  -50.6490    3.8000 O.2   245  HIS245     -0.2867
     68  CB        21.2130  -51.9940    1.9310 C.3   245  HIS245      0.0745
     69  CG        20.2130  -52.9550    1.3740 C.ar  245  HIS245      0.0817
     70  ND1       20.5120  -54.2720    1.0990 N.ar  245  HIS245     -0.2268
     71  CD2       18.9080  -52.7960    1.0510 C.ar  245  HIS245      0.1154
     72  CE1       19.4320  -54.8720    0.6070 C.ar  245  HIS245      0.1986
     73  NE2       18.4620  -53.9780    0.5380 N.ar  245  HIS245     -0.2212
     74  N         24.9060  -50.8820   -0.1790 N.3   247  VAL247     -0.1231
     75  CA        24.3990  -50.1650   -1.3310 C.3   247  VAL247      0.1692
     76  C         23.0280  -49.6490   -0.9450 C.2   247  VAL247      0.2592
     77  O         22.1850  -50.4030   -0.5200 O.2   247  VAL247     -0.2718
     78  CB        24.2720  -51.0780   -2.5410 C.3   247  VAL247      0.0266
     79  CG1       23.3660  -50.4710   -3.5840 C.3   247  VAL247      0.0020
     80  CG2       25.6290  -51.4170   -3.0910 C.3   247  VAL247      0.0020
     81  N         22.8310  -48.3320   -1.0210 N.am  248  SER248     -0.1952
     82  CA        21.5580  -47.7070   -0.6770 C.3   248  SER248      0.1924
     83  C         21.4320  -47.2670    0.7520 C.2   248  SER248      0.2314
     84  O         20.6870  -46.3510    1.0120 O.2   248  SER248     -0.2863
     85  CB        20.3270  -48.5340   -1.0760 C.3   248  SER248      0.2116
     86  OG        19.8890  -49.4430   -0.0630 O.3   248  SER248     -0.2180
     87  N         13.6420  -59.3140    2.9240 N.3   254  TYR254     -0.1241
     88  CA        13.0670  -60.0010    1.7740 C.3   254  TYR254      0.1605
     89  C         12.1450  -61.2270    2.1430 C.2   254  TYR254      0.2264
     90  O         12.5590  -62.0780    2.8630 O.2   254  TYR254     -0.2867
     91  CB        14.1890  -60.5080    0.8320 C.3   254  TYR254      0.0534
     92  CG        15.0790  -59.4080    0.3290 C.ar  254  TYR254     -0.0201
     93  CD1       14.7140  -58.6470   -0.7950 C.ar  254  TYR254     -0.0009
     94  CD2       16.3140  -59.1580    0.9460 C.ar  254  TYR254     -0.0009
     95  CE1       15.5430  -57.6340   -1.2450 C.ar  254  TYR254      0.0417
     96  CE2       17.1780  -58.1370    0.4810 C.ar  254  TYR254      0.0417
     97  CZ        16.7520  -57.3950   -0.6080 C.ar  254  TYR254      0.1957
     98  OH        17.5850  -56.4280   -1.0770 O.3   254  TYR254     -0.2866
     99  N         10.4590  -57.0710   -1.2860 N.3   264  GLU264     -0.1245
    100  CA        11.3460  -56.3730   -0.3710 C.3   264  GLU264      0.1567
    101  C         10.5850  -55.3450    0.4070 C.2   264  GLU264      0.2260
    102  O          9.7160  -54.6330   -0.1380 O.2   264  GLU264     -0.2867
    103  CB        12.4530  -55.5940   -1.1050 C.3   264  GLU264      0.0388
    104  CG        13.5700  -55.0860   -0.1190 C.3   264  GLU264      0.1160
    105  CD        14.7060  -54.4080   -0.8420 C.2   264  GLU264      0.3649
    106  OE1       14.6950  -54.3790   -2.0840 O.co2 264  GLU264     -0.2457
    107  OE2       15.6380  -53.9350   -0.1660 O.co2 264  GLU264     -0.2457
    108  N         11.4760  -51.9400    2.8190 N.3   266  TYR266     -0.1241
    109  CA        12.6100  -51.0340    2.5890 C.3   266  TYR266      0.1605
    110  C         12.3160  -49.7300    3.3050 C.2   266  TYR266      0.2264
    111  O         11.1620  -49.2780    3.2750 O.2   266  TYR266     -0.2867
    112  CB        12.6500  -50.7580    1.0610 C.3   266  TYR266      0.0534
    113  CG        13.8030  -49.9330    0.4460 C.ar  266  TYR266     -0.0201
    114  CD1       14.9860  -50.5370    0.0340 C.ar  266  TYR266     -0.0009
    115  CD2       13.6520  -48.5600    0.2240 C.ar  266  TYR266     -0.0009
    116  CE1       15.9970  -49.8370   -0.5630 C.ar  266  TYR266      0.0417
    117  CE2       14.6750  -47.8290   -0.3700 C.ar  266  TYR266      0.0417
    118  CZ        15.8470  -48.4860   -0.7780 C.ar  266  TYR266      0.1957
    119  OH        16.8680  -47.7720   -1.3780 O.3   266  TYR266     -0.2866
    120  N         28.9590  -54.7430    1.5070 N.3   289  ARG289     -0.1231
    121  CA        28.2530  -54.1130    0.3890 C.3   289  ARG289      0.1694
    122  C         26.7410  -54.4360    0.2680 C.2   289  ARG289      0.2591
    123  O         25.9650  -53.5960   -0.1600 O.2   289  ARG289     -0.2718
    124  CB        28.9390  -54.4450   -0.9270 C.3   289  ARG289      0.0321
    125  CG        28.4020  -55.8130   -1.5210 C.3   289  ARG289      0.0489
    126  CD        29.2740  -56.4320   -2.6290 C.3   289  ARG289      0.2205
    127  NE        28.7390  -57.7650   -2.9620 N.pl3 289  ARG289     -0.0865
    128  CZ        28.8520  -58.8600   -2.2210 C.cat 289  ARG289      0.5346
    129  NH1       29.5550  -58.8810   -1.0700 N.pl3 289  ARG289      0.1354
    130  NH2       28.2330  -59.9780   -2.6450 N.pl3 289  ARG289      0.1354
    131  N         26.3290  -55.6520    0.6150 N.am  290  ARG290     -0.1980
    132  CA        24.9270  -56.0220    0.4930 C.3   290  ARG290      0.1597
    133  C         24.2420  -55.9760    1.8560 C.2   290  ARG290      0.2287
    134  O         23.2100  -55.3500    1.9840 O.2   290  ARG290     -0.2864
    135  CB        24.7680  -57.3830   -0.1750 C.3   290  ARG290      0.0334
    136  CG        24.9500  -57.2420   -1.7300 C.3   290  ARG290      0.0492
    137  CD        24.2850  -58.3460   -2.4670 C.3   290  ARG290      0.2205
    138  NE        24.5280  -58.2190   -3.9070 N.pl3 290  ARG290     -0.0865
    139  CZ        23.7590  -57.5360   -4.7470 C.cat 290  ARG290      0.5346
    140  NH1       22.6920  -56.9090   -4.2970 N.pl3 290  ARG290      0.1354
    141  NH2       24.0470  -57.5010   -6.0460 N.pl3 290  ARG290      0.1354
    142  N         18.8370  -65.9190   -3.0080 N.3   301  TRP301     -0.1241
    143  CA        18.7570  -64.5070   -3.3810 C.3   301  TRP301      0.1605
    144  C         19.4260  -64.3630   -4.7610 C.2   301  TRP301      0.2264
    145  O         18.9290  -63.6570   -5.6330 O.2   301  TRP301     -0.2867
    146  CB        19.4450  -63.5890   -2.3520 C.3   301  TRP301      0.0550
    147  CG        18.9080  -62.1870   -2.4240 C.ar  301  TRP301      0.0003
    148  CD1       17.7710  -61.7010   -1.8230 C.ar  301  TRP301      0.0946
    149  CD2       19.4340  -61.1050   -3.2340 C.ar  301  TRP301      0.0152
    150  NE1       17.5800  -60.3790   -2.1770 N.ar  301  TRP301     -0.2442
    151  CE2       18.5740  -59.9870   -3.0380 C.ar  301  TRP301      0.0810
    152  CE3       20.5540  -60.9790   -4.1000 C.ar  301  TRP301      0.0012
    153  CZ2       18.7880  -58.7490   -3.6740 C.ar  301  TRP301      0.0191
    154  CZ3       20.7550  -59.7710   -4.7450 C.ar  301  TRP301      0.0001
    155  CH2       19.8700  -58.6630   -4.5270 C.ar  301  TRP301      0.0015
@<TRIPOS>BOND
     1    13    14    2
     2    13    12    1
     3    22    21    2
     4    21    20    1
     5    19    20    1
     6    12    11    1
     7    12    15    1
     8    20    23    1
     9    17    16    2
    10    16    15    1
    11    16    18   am
    12    46    45    2
    13    23    24    1
    14    43    44    1
    15    35    34    1
    16    35    36    2
    17    37    34    1
    18    37    38    1
    19    34    33    1
    20    29    31   ar
    21    29    26   ar
    22     3     2    1
    23     3     4    2
    24    31    32   ar
    25    45    44    1
    26    24    26   ar
    27    24    25   ar
    28     2     5    1
    29     2     1    1
    30    26    28   ar
    31    44    47    1
    32    40    38   ar
    33    40    42   ar
    34    38    39   ar
    35     5     6    1
    36   141   139    1
    37    25    27   ar
    38    32    30   ar
    39    28    30   ar
    40    28    27   ar
    41   145   144    2
    42     8     6   ar
    43     8    10   ar
    44     6     7   ar
    45    42    41   ar
    46    49    51   ar
    47    49    48   ar
    48    47    48    1
    49    39    41   ar
    50    51    52   ar
    51    48    50   ar
    52   144   143    1
    53   139   140    1
    54   139   138    2
    55   154   155   ar
    56   154   152   ar
    57    52    50   ar
    58   155   153   ar
    59   152   149   ar
    60    10     9   ar
    61     7     9   ar
    62   138   137    1
    63   153   151   ar
    64    79    78    1
    65   143   142    1
    66   143   146    1
    67   149   151   ar
    68   149   147   ar
    69    80    78    1
    70   151   150   ar
    71   127   126    1
    72   127   128    2
    73   130   128    1
    74   126   125    1
    75    78    75    1
    76   137   136    1
    77   147   146    1
    78   147   148   ar
    79   128   129    1
    80   150   148   ar
    81   106   105   ar
    82   136   135    1
    83   125   124    1
    84   119   118    1
    85    75    76    1
    86    75    74    1
    87    99   100    1
    88    95    93   ar
    89    95    97   ar
    90   103   100    1
    91   103   104    1
    92    98    97    1
    93    85    82    1
    94    85    86    1
    95    81    76   am
    96    81    82    1
    97    76    77    2
    98   124   121    1
    99   105   107   ar
   100   105   104    1
   101    93    92   ar
   102   118   116   ar
   103   118   117   ar
   104    82    83    1
   105    97    96   ar
   106   116   114   ar
   107   100   101    1
   108   117   115   ar
   109   135   132    1
   110   123   122    2
   111   102   101    2
   112    62    61    1
   113   114   113   ar
   114   115   113   ar
   115   122   121    1
   116   122   131   am
   117    92    91    1
   118    92    94   ar
   119   121   120    1
   120   113   112    1
   121    96    94   ar
   122   132   131    1
   123   132   133    1
   124    73    72   ar
   125    73    71   ar
   126    72    70   ar
   127    83    84    2
   128    91    88    1
   129    71    69   ar
   130   112   109    1
   131    70    69   ar
   132    61    63    1
   133    61    60    2
   134    69    68    1
   135    59    60    1
   136    59    58    1
   137    88    89    1
   138    88    87    1
   139   133   134    2
   140    68    65    1
   141    89    90    2
   142   109   108    1
   143   109   110    1
   144    57    58    1
   145    57    54    1
   146    65    66    1
   147    65    64    1
   148    66    67    2
   149   111   110    2
   150    53    54    1
   151    54    55    1
   152    56    55    2
