@<TRIPOS>MOLECULE
tmp/2igfB00.pdb
 154 155 0 0 0
SMALL
GASTEIGER

@<TRIPOS>ATOM
      1  N        -27.3120   57.7070    6.9610 N.3    31  ARG31      -0.1231
      2  CA       -27.1610   59.0550    6.4270 C.3    31  ARG31       0.1694
      3  C        -25.7390   59.3950    6.0590 C.2    31  ARG31       0.2592
      4  O        -25.4680   60.4600    5.4590 O.2    31  ARG31      -0.2718
      5  CB       -27.6000   60.1130    7.3760 C.3    31  ARG31       0.0321
      6  CG       -29.0960   60.0390    7.4640 C.3    31  ARG31       0.0489
      7  CD       -29.4280   59.2640    8.7540 C.3    31  ARG31       0.2205
      8  NE       -30.3640   59.9980    9.6080 N.pl3  31  ARG31      -0.0865
      9  CZ       -30.0720   61.2000   10.1710 C.cat  31  ARG31       0.5346
     10  NH1      -28.8610   61.8280   10.0510 N.pl3  31  ARG31       0.1354
     11  NH2      -31.0560   61.7690   10.8910 N.pl3  31  ARG31       0.1354
     12  N        -24.8320   58.4550    6.3770 N.am   32  CYS32      -0.1956
     13  CA       -23.4390   58.7220    6.1830 C.3    32  CYS32       0.1843
     14  C        -22.9680   57.8950    5.0010 C.2    32  CYS32       0.2625
     15  O        -23.3190   56.7260    4.8760 O.2    32  CYS32      -0.2714
     16  CB       -22.7810   58.4160    7.5570 C.3    32  CYS32       0.0997
     17  SG       -22.7790   59.8240    8.7560 S.3    32  CYS32      -0.0797
     18  N        -22.3150   58.5480    4.0310 N.am   33  ALA33      -0.1977
     19  CA       -21.6340   57.9140    2.9260 C.3    33  ALA33       0.1597
     20  C        -20.5150   57.1130    3.5510 C.2    33  ALA33       0.2287
     21  O        -20.1930   57.3270    4.7270 O.2    33  ALA33      -0.2864
     22  CB       -20.9490   58.8680    2.0730 C.3    33  ALA33       0.0319
     23  N         -7.0380   55.3820   -1.5550 N.3    47  TRP47      -0.1298
     24  CA        -8.4830   55.3510   -1.2700 C.3    47  TRP47       0.1291
     25  C         -8.9320   54.3070   -2.2220 C.3    47  TRP47       0.2013
     26  O         -8.4200   54.4210   -3.3190 O.3    47  TRP47      -0.2188
     27  CB        -9.1590   56.6370   -1.6750 C.3    47  TRP47       0.0497
     28  CG       -10.6780   56.8120   -1.7980 C.ar   47  TRP47      -0.0001
     29  CD1      -11.4700   57.0010   -0.6860 C.ar   47  TRP47       0.0946
     30  CD2      -11.4320   56.9410   -2.9470 C.ar   47  TRP47       0.0152
     31  NE1      -12.6930   57.2450   -1.1070 N.ar   47  TRP47      -0.2442
     32  CE2      -12.7000   57.2230   -2.4470 C.ar   47  TRP47       0.0810
     33  CE3      -11.2340   56.8980   -4.3150 C.ar   47  TRP47       0.0012
     34  CZ2      -13.7320   57.4470   -3.3060 C.ar   47  TRP47       0.0191
     35  CZ3      -12.2680   57.1240   -5.1930 C.ar   47  TRP47       0.0001
     36  CH2      -13.5030   57.3990   -4.6740 C.ar   47  TRP47       0.0015
     37  N        -15.7500   54.2600   -2.7810 N.3    50  GLY50      -0.1210
     38  CA       -16.5380   55.1390   -1.8950 C.3    50  GLY50       0.1956
     39  C        -18.0240   54.9860   -2.1720 C.2    50  GLY50       0.2612
     40  O        -18.3170   54.7930   -3.3550 O.2    50  GLY50      -0.2717
     41  N        -18.9670   55.1340   -1.2530 N.am   51  ILE51      -0.1965
     42  CA       -20.3460   54.7620   -1.5090 C.3    51  ILE51       0.1727
     43  C        -21.2830   55.7460   -0.8770 C.2    51  ILE51       0.2617
     44  O        -21.0400   56.2630    0.2250 O.2    51  ILE51      -0.2715
     45  CB       -20.6150   53.3600   -0.9300 C.3    51  ILE51       0.0290
     46  CG1      -22.0880   53.0170   -0.7950 C.3    51  ILE51       0.0022
     47  CG2      -19.9920   53.3210    0.4650 C.3    51  ILE51       0.0023
     48  CD1      -22.3440   51.6770   -1.5000 C.3    51  ILE51       0.0001
     49  N        -22.3650   55.9780   -1.5860 N.am   52  SER52      -0.1936
     50  CA       -23.3800   56.9020   -1.1340 C.3    52  SER52       0.2055
     51  C        -24.2780   56.3030   -0.0870 C.2    52  SER52       0.2644
     52  O        -24.4260   55.0750   -0.0320 O.2    52  SER52      -0.2714
     53  CB       -24.2280   57.3000   -2.2760 C.3    52  SER52       0.2130
     54  OG       -24.6100   56.1030   -2.9630 O.3    52  SER52      -0.2179
     55  N        -24.9780   57.1590    0.6500 N.am   53  SER53      -0.1935
     56  CA       -25.8550   56.7300    1.7060 C.3    53  SER53       0.2055
     57  C        -26.9190   55.7950    1.2860 C.2    53  SER53       0.2643
     58  O        -27.5740   55.2800    2.1770 O.2    53  SER53      -0.2714
     59  CB       -26.5830   57.8410    2.3220 C.3    53  SER53       0.2130
     60  OG       -26.9820   58.6580    1.2320 O.3    53  SER53      -0.2179
     61  N        -27.2280   55.5540    0.0230 N.am   54  GLY54      -0.1954
     62  CA       -28.3250   54.6510   -0.2540 C.3    54  GLY54       0.1869
     63  C        -27.8200   53.5110   -1.0820 C.2    54  GLY54       0.2309
     64  O        -28.6010   52.7100   -1.5600 O.2    54  GLY54      -0.2863
     65  N        -26.7960   53.8240   -4.0160 N.3    56  SER56      -0.1202
     66  CA       -26.9840   54.0090   -5.4560 C.3    56  SER56       0.2020
     67  C        -25.6850   54.3180   -6.1370 C.2    56  SER56       0.2618
     68  O        -25.4320   53.8840   -7.2510 O.2    56  SER56      -0.2717
     69  CB       -27.8590   55.1640   -5.8730 C.3    56  SER56       0.2103
     70  OG       -29.1020   55.2120   -5.1900 O.3    56  SER56      -0.2182
     71  N        -24.8510   55.1080   -5.4950 N.am   57  TYR57      -0.1975
     72  CA       -23.6850   55.5970   -6.1480 C.3    57  TYR57       0.1639
     73  C        -22.4810   55.0410   -5.5110 C.2    57  TYR57       0.2290
     74  O        -22.3210   55.1360   -4.2930 O.2    57  TYR57      -0.2864
     75  CB       -23.6750   57.0410   -6.0370 C.3    57  TYR57       0.0560
     76  CG       -24.8220   57.6980   -6.7480 C.ar   57  TYR57      -0.0198
     77  CD1      -24.8120   57.7620   -8.0910 C.ar   57  TYR57      -0.0009
     78  CD2      -25.8290   58.2640   -6.0120 C.ar   57  TYR57      -0.0009
     79  CE1      -25.8380   58.4220   -8.7020 C.ar   57  TYR57       0.0417
     80  CE2      -26.8640   58.9210   -6.6110 C.ar   57  TYR57       0.0417
     81  CZ       -26.8440   58.9820   -7.9650 C.ar   57  TYR57       0.1957
     82  OH       -27.8910   59.5910   -8.6190 O.3    57  TYR57      -0.2866
     83  N        -18.1050   54.9080   -6.3720 N.3    59  PHE59      -0.1241
     84  CA       -17.0650   55.5810   -7.0930 C.3    59  PHE59       0.1605
     85  C        -15.8260   54.7220   -6.9600 C.2    59  PHE59       0.2264
     86  O        -15.6640   54.1510   -5.8910 O.2    59  PHE59      -0.2867
     87  CB       -16.8860   56.9460   -6.4690 C.3    59  PHE59       0.0534
     88  CG       -18.1300   57.8150   -6.4930 C.ar   59  PHE59      -0.0203
     89  CD1      -19.2670   57.4830   -5.8200 C.ar   59  PHE59      -0.0042
     90  CD2      -18.1350   58.9450   -7.2180 C.ar   59  PHE59      -0.0042
     91  CE1      -20.3980   58.2490   -5.8650 C.ar   59  PHE59      -0.0003
     92  CE2      -19.2610   59.7080   -7.2650 C.ar   59  PHE59      -0.0003
     93  CZ       -20.4000   59.3770   -6.5980 C.ar   59  PHE59      -0.0000
     94  N        -17.3200   58.6500    6.0190 N.3    99  TYR99      -0.1227
     95  CA       -17.3080   59.9810    5.3710 C.3    99  TYR99       0.1736
     96  C        -17.9160   61.0420    6.2220 C.2    99  TYR99       0.2596
     97  O        -18.7760   60.7520    7.0470 O.2    99  TYR99      -0.2718
     98  CB       -18.1200   60.0890    4.1660 C.3    99  TYR99       0.0548
     99  CG       -17.3050   60.0180    2.9310 C.ar   99  TYR99      -0.0200
    100  CD1      -17.0480   58.7980    2.3700 C.ar   99  TYR99      -0.0009
    101  CD2      -16.8400   61.1570    2.3930 C.ar   99  TYR99      -0.0009
    102  CE1      -16.2970   58.7000    1.2340 C.ar   99  TYR99       0.0417
    103  CE2      -16.0800   61.0610    1.2670 C.ar   99  TYR99       0.0417
    104  CZ       -15.8210   59.8410    0.7220 C.ar   99  TYR99       0.1957
    105  OH       -14.9810   59.7730   -0.3320 O.3    99  TYR99      -0.2866
    106  N        -17.5280   62.2800    6.0400 N.am  100  SER100     -0.1938
    107  CA       -18.0580   63.2970    6.9130 C.3   100  SER100      0.2055
    108  C        -19.4850   63.5980    6.5100 C.2   100  SER100      0.2644
    109  O        -19.9960   63.1250    5.4870 O.2   100  SER100     -0.2714
    110  CB       -17.1940   64.5130    6.7640 C.3   100  SER100      0.2130
    111  OG       -17.5230   65.5120    7.7260 O.3   100  SER100     -0.2179
    112  N        -20.1160   64.4690    7.2890 N.am  101  SER101     -0.1935
    113  CA       -21.4720   64.9810    7.0320 C.3   101  SER101      0.2055
    114  C        -21.3400   65.8550    5.8150 C.2   101  SER101      0.2643
    115  O        -22.2570   66.0980    5.0500 O.2   101  SER101     -0.2714
    116  CB       -21.9040   65.8790    8.1290 C.3   101  SER101      0.2130
    117  OG       -20.7450   66.7380    8.3760 O.3   101  SER101     -0.2179
    118  N        -20.1950   66.5040    5.7900 N.am  102  ASP102     -0.1957
    119  CA       -19.8670   67.3350    4.6960 C.3   102  ASP102      0.1825
    120  C        -19.0100   66.3210    3.9440 C.2   102  ASP102      0.2464
    121  O        -17.8440   66.1420    4.2880 O.2   102  ASP102     -0.2730
    122  CB       -19.1420   68.5060    5.3090 C.3   102  ASP102      0.1450
    123  CG       -18.6940   69.5510    4.3160 C.2   102  ASP102      0.3671
    124  OD1      -18.7010   69.2750    3.1210 O.co2 102  ASP102     -0.2456
    125  OD2      -18.3250   70.6530    4.7250 O.co2 102  ASP102     -0.2456
    126  N        -19.4740   65.5910    2.9260 N.am  103  PRO103     -0.2715
    127  CA       -18.8400   64.3820    2.4410 C.3   103  PRO103      0.1536
    128  C        -17.5580   64.5850    1.6640 C.2   103  PRO103      0.2598
    129  O        -17.5250   64.0360    0.5540 O.2   103  PRO103     -0.2715
    130  CB       -19.9090   63.7120    1.6200 C.3   103  PRO103      0.0310
    131  CG       -21.1570   64.5030    1.9150 C.3   103  PRO103      0.0237
    132  CD       -20.6440   65.9070    2.1050 C.3   103  PRO103      0.0939
    133  N        -16.4950   65.3360    2.0280 N.am  104  PHE104     -0.1974
    134  CA       -15.2410   65.2130    1.2350 C.3   104  PHE104      0.1639
    135  C        -14.0310   64.7070    2.0300 C.2   104  PHE104      0.2290
    136  O        -12.9290   64.5920    1.5120 O.2   104  PHE104     -0.2864
    137  CB       -14.8020   66.5280    0.5900 C.3   104  PHE104      0.0560
    138  CG       -15.8830   67.2310   -0.2190 C.ar  104  PHE104     -0.0200
    139  CD1      -17.1330   67.4960    0.3170 C.ar  104  PHE104     -0.0042
    140  CD2      -15.5910   67.6420   -1.4960 C.ar  104  PHE104     -0.0042
    141  CE1      -18.0780   68.1590   -0.3940 C.ar  104  PHE104     -0.0003
    142  CE2      -16.5450   68.3100   -2.2150 C.ar  104  PHE104     -0.0003
    143  CZ       -17.7760   68.5610   -1.6590 C.ar  104  PHE104     -0.0000
    144  N        -12.7440   62.1570    5.7150 N.3   106  PHE106     -0.1241
    145  CA       -13.2760   61.0900    6.5160 C.3   106  PHE106      0.1605
    146  C        -13.1610   61.5460    7.9480 C.2   106  PHE106      0.2264
    147  O        -12.2430   62.3190    8.2160 O.2   106  PHE106     -0.2867
    148  CB       -12.4620   59.8710    6.2690 C.3   106  PHE106      0.0534
    149  CG       -12.0500   59.5980    4.8350 C.ar  106  PHE106     -0.0203
    150  CD1      -12.9720   59.3130    3.8720 C.ar  106  PHE106     -0.0042
    151  CD2      -10.7330   59.6850    4.5020 C.ar  106  PHE106     -0.0042
    152  CE1      -12.6290   59.1140    2.5630 C.ar  106  PHE106     -0.0003
    153  CE2      -10.3790   59.4880    3.1910 C.ar  106  PHE106     -0.0003
    154  CZ       -11.3100   59.2090    2.2240 C.ar  106  PHE106     -0.0000
@<TRIPOS>BOND
     1    79    77   ar
     2    79    81   ar
     3    82    81    1
     4    77    76   ar
     5    81    80   ar
     6    92    90   ar
     7    92    93   ar
     8    68    67    2
     9    90    88   ar
    10    84    85    1
    11    84    87    1
    12    84    83    1
    13    85    86    2
    14    76    75    1
    15    76    78   ar
    16    80    78   ar
    17    93    91   ar
    18    88    87    1
    19    88    89   ar
    20    72    75    1
    21    72    73    1
    22    72    71    1
    23    67    71   am
    24    67    66    1
    25    69    66    1
    26    69    70    1
    27    91    89   ar
    28    73    74    2
    29    66    65    1
    30    35    36   ar
    31    35    33   ar
    32    36    34   ar
    33    33    30   ar
    34    40    39    2
    35    26    25    1
    36    34    32   ar
    37    54    53    1
    38    30    32   ar
    39    30    28   ar
    40    37    38    1
    41    32    31   ar
    42    53    50    1
    43    25    24    1
    44   142   143   ar
    45   142   140   ar
    46    39    38    1
    47    39    41   am
    48    28    27    1
    49    28    29   ar
    50    27    24    1
    51   143   141   ar
    52    49    50    1
    53    49    43   am
    54    64    63    2
    55    23    24    1
    56    42    41    1
    57    42    45    1
    58    42    43    1
    59    48    46    1
    60   140   138   ar
    61    50    51    1
    62    31    29   ar
    63    63    62    1
    64    45    46    1
    65    45    47    1
    66    43    44    2
    67   141   139   ar
    68   105   104    1
    69    62    61    1
    70   138   139   ar
    71   138   137    1
    72    51    52    2
    73    51    55   am
    74    61    57   am
    75   129   128    2
    76   137   134    1
    77    55    56    1
    78   104   102   ar
    79   104   103   ar
    80    60    59    1
    81   102   100   ar
    82   134   133    1
    83   134   135    1
    84   103   101   ar
    85    57    56    1
    86    57    58    2
    87   136   135    2
    88   130   131    1
    89   130   127    1
    90   128   133   am
    91   128   127    1
    92    56    59    1
    93   131   132    1
    94    22    19    1
    95   132   126    1
    96   154   152   ar
    97   154   153   ar
    98   100    99   ar
    99   101    99   ar
   100   127   126    1
   101   152   150   ar
   102   126   120   am
   103    19    20    1
   104    19    18    1
   105    99    98    1
   106   124   123   ar
   107   153   151   ar
   108    20    21    2
   109   150   149   ar
   110   120   121    2
   111   120   119    1
   112    18    14   am
   113    98    95    1
   114   123   125   ar
   115   123   122    1
   116   151   149   ar
   117   119   122    1
   118   119   118    1
   119   149   148    1
   120    15    14    2
   121    14    13    1
   122   115   114    2
   123    95    94    1
   124    95    96    1
   125     4     3    2
   126   109   108    2
   127   144   145    1
   128   118   114   am
   129   114   113    1
   130   106    96   am
   131   106   107    1
   132     3    12   am
   133     3     2    1
   134    13    12    1
   135    13    16    1
   136    96    97    2
   137   148   145    1
   138     2     1    1
   139     2     5    1
   140   108   107    1
   141   108   112   am
   142   145   146    1
   143   110   107    1
   144   110   111    1
   145   113   112    1
   146   113   116    1
   147     5     6    1
   148     6     7    1
   149    16    17    1
   150   146   147    2
   151   116   117    1
   152     7     8    1
   153     8     9    2
   154    10     9    1
   155     9    11    1
