@<TRIPOS>MOLECULE
tmp/2igfA00.pdb
 81 78 0 0 0
SMALL
GASTEIGER

@<TRIPOS>ATOM
      1  N        -12.6550   74.7310   -4.4390 N.3    31  LEU31      -0.1245
      2  CA       -13.7460   74.5040   -5.3580 C.3    31  LEU31       0.1561
      3  C        -14.4820   75.8320   -5.5220 C.2    31  LEU31       0.2260
      4  O        -14.3760   76.7210   -4.6680 O.2    31  LEU31      -0.2867
      5  CB       -14.6360   73.4830   -4.7870 C.3    31  LEU31       0.0270
      6  CG       -14.0370   72.1190   -4.5110 C.3    31  LEU31       0.0019
      7  CD1      -14.9740   71.3620   -3.5900 C.3    31  LEU31       0.0001
      8  CD2      -13.7900   71.3840   -5.7830 C.3    31  LEU31       0.0001
      9  N        -17.2220   76.9580   -4.6710 N.3    33  ASP33      -0.1239
     10  CA       -17.9640   77.5070   -3.5620 C.3    33  ASP33       0.1674
     11  C        -16.9650   78.0350   -2.5170 C.2    33  ASP33       0.2266
     12  O        -17.3310   78.2040   -1.3520 O.2    33  ASP33      -0.2867
     13  CB       -18.8810   76.4160   -3.0100 C.3    33  ASP33       0.1410
     14  CG       -18.1450   75.2650   -2.3320 C.2    33  ASP33       0.3668
     15  OD1      -17.7410   74.3180   -3.0190 O.co2  33  ASP33      -0.2456
     16  OD2      -17.9880   75.3450   -1.1140 O.co2  33  ASP33      -0.2456
     17  N        -14.7620   76.7050   -0.7280 N.3    35  ASP35      -0.1239
     18  CA       -14.2300   75.7470    0.2100 C.3    35  ASP35       0.1674
     19  C        -13.0280   75.0090   -0.3270 C.2    35  ASP35       0.2266
     20  O        -13.1090   74.5690   -1.4710 O.2    35  ASP35      -0.2867
     21  CB       -15.3530   74.8380    0.5840 C.3    35  ASP35       0.1410
     22  CG       -16.2440   75.5250    1.6200 C.2    35  ASP35       0.3668
     23  OD1      -15.7800   76.3980    2.3590 O.co2  35  ASP35      -0.2456
     24  OD2      -17.4160   75.1740    1.7270 O.co2  35  ASP35      -0.2456
     25  N        -10.7000   72.0030    0.5370 N.3    37  TYR37      -0.1241
     26  CA       -10.7210   70.8720    1.4240 C.3    37  TYR37       0.1605
     27  C         -9.3570   70.2320    1.6100 C.2    37  TYR37       0.2264
     28  O         -9.1170   69.1310    1.0930 O.2    37  TYR37      -0.2867
     29  CB       -11.7510   69.8610    0.8770 C.3    37  TYR37       0.0534
     30  CG       -13.2220   70.2270    1.0380 C.ar   37  TYR37      -0.0201
     31  CD1      -13.9220   70.9440    0.0970 C.ar   37  TYR37      -0.0009
     32  CD2      -13.8520   69.7680    2.1600 C.ar   37  TYR37      -0.0009
     33  CE1      -15.2690   71.1850    0.2980 C.ar   37  TYR37       0.0417
     34  CE2      -15.1790   69.9990    2.3750 C.ar   37  TYR37       0.0417
     35  CZ       -15.8590   70.6970    1.4390 C.ar   37  TYR37       0.1957
     36  OH       -17.1780   70.8730    1.6850 O.3    37  TYR37      -0.2866
     37  N         -4.2360   65.5720    3.0340 N.3    94  PHE94      -0.1241
     38  CA        -5.1380   64.8740    2.0930 C.3    94  PHE94       0.1605
     39  C         -5.9450   65.8840    1.2570 C.2    94  PHE94       0.2264
     40  O         -6.0150   67.0320    1.6880 O.2    94  PHE94      -0.2867
     41  CB        -6.0510   64.0020    2.9910 C.3    94  PHE94       0.0534
     42  CG        -7.2720   63.3630    2.3490 C.ar   94  PHE94      -0.0203
     43  CD1       -7.1620   62.2600    1.5700 C.ar   94  PHE94      -0.0042
     44  CD2       -8.4960   63.8640    2.5670 C.ar   94  PHE94      -0.0042
     45  CE1       -8.2530   61.6530    1.0170 C.ar   94  PHE94      -0.0003
     46  CE2       -9.6030   63.2620    2.0180 C.ar   94  PHE94      -0.0003
     47  CZ        -9.4990   62.1510    1.2410 C.ar   94  PHE94      -0.0000
     48  N        -10.0470   66.2980   -0.4460 N.3    96  GLY96      -0.1210
     49  CA       -11.2480   65.6220   -0.9410 C.3    96  GLY96       0.1956
     50  C        -11.8480   66.4890   -2.0150 C.2    96  GLY96       0.2613
     51  O        -12.9530   66.2210   -2.4680 O.2    96  GLY96      -0.2717
     52  N        -11.1740   67.5380   -2.4880 N.am   97  SER97      -0.1938
     53  CA       -11.8450   68.4480   -3.3630 C.3    97  SER97       0.2055
     54  C        -11.9270   67.8190   -4.7010 C.2    97  SER97       0.2643
     55  O        -12.7720   68.2360   -5.5010 O.2    97  SER97      -0.2714
     56  CB       -11.1080   69.7720   -3.5230 C.3    97  SER97       0.2130
     57  OG       -10.9440   70.5440   -2.3280 O.3    97  SER97      -0.2179
     58  N        -11.0760   66.8870   -5.0870 N.am   98  HIS98      -0.1959
     59  CA       -11.2700   66.3970   -6.4440 C.3    98  HIS98       0.1787
     60  C        -11.3060   64.8830   -6.3840 C.2    98  HIS98       0.2620
     61  O        -10.6070   64.3140   -5.5380 O.2    98  HIS98      -0.2715
     62  CB       -10.1260   66.8810   -7.3750 C.3    98  HIS98       0.0785
     63  CG        -9.9640   68.3730   -7.6690 C.ar   98  HIS98       0.0821
     64  ND1      -10.8730   69.3250   -7.8540 N.ar   98  HIS98      -0.2267
     65  CD2       -8.7360   68.9930   -7.8320 C.ar   98  HIS98       0.1154
     66  CE1      -10.2490   70.4780   -8.1290 C.ar   98  HIS98       0.1986
     67  NE2       -8.9630   70.2520   -8.1050 N.ar   98  HIS98      -0.2212
     68  N        -12.1170   64.2000   -7.1940 N.am   99  VAL99      -0.1977
     69  CA       -12.0550   62.7530   -7.1530 C.3    99  VAL99       0.1596
     70  C        -11.0780   62.2050   -8.2380 C.2    99  VAL99       0.2287
     71  O        -11.1720   62.6060   -9.4230 O.2    99  VAL99      -0.2864
     72  CB       -13.5240   62.1430   -7.2980 C.3    99  VAL99       0.0276
     73  CG1      -14.1860   62.3160   -5.9860 C.3    99  VAL99       0.0022
     74  CG2      -14.5040   62.8940   -8.1160 C.3    99  VAL99       0.0022
     75  N         -9.7310   61.4690   -4.3300 N.3   101  PRO101     -0.2116
     76  CA        -9.0990   62.0470   -3.1910 C.3   101  PRO101      0.1372
     77  C         -7.7170   61.4510   -2.9410 C.2   101  PRO101      0.2244
     78  O         -7.5680   60.2800   -2.5920 O.2   101  PRO101     -0.2868
     79  CB       -10.1150   61.8200   -2.1180 C.3   101  PRO101      0.0268
     80  CG       -10.8930   60.6450   -2.5530 C.3   101  PRO101      0.0207
     81  CD       -11.0560   61.0080   -4.0010 C.3   101  PRO101      0.0892
@<TRIPOS>BOND
     1    71    70    2
     2    70    69    1
     3    66    67   ar
     4    66    64   ar
     5    74    72    1
     6    67    65   ar
     7    64    63   ar
     8    65    63   ar
     9    63    62    1
    10    62    59    1
    11    72    69    1
    12    72    73    1
    13    68    69    1
    14    68    60   am
    15    59    60    1
    16    59    58    1
    17    60    61    2
    18     8     6    1
    19     3     2    1
    20     3     4    2
    21    55    54    2
    22     2     5    1
    23     2     1    1
    24    58    54   am
    25     5     6    1
    26    54    53    1
    27     9    10    1
    28     6     7    1
    29    75    81    1
    30    75    76    1
    31    81    80    1
    32    10    13    1
    33    10    11    1
    34    56    53    1
    35    56    57    1
    36    53    52    1
    37    76    77    1
    38    76    79    1
    39    15    14   ar
    40    13    14    1
    41    77    78    2
    42    80    79    1
    43    11    12    2
    44    52    50   am
    45    51    50    2
    46    14    16   ar
    47    50    49    1
    48    20    19    2
    49    49    48    1
    50    17    18    1
    51    19    18    1
    52    31    33   ar
    53    31    30   ar
    54    18    21    1
    55    33    35   ar
    56    25    26    1
    57    21    22    1
    58    29    30    1
    59    29    26    1
    60    45    47   ar
    61    45    43   ar
    62    30    32   ar
    63    28    27    2
    64    47    46   ar
    65    39    40    2
    66    39    38    1
    67    26    27    1
    68    35    36    1
    69    35    34   ar
    70    43    42   ar
    71    22    24   ar
    72    22    23   ar
    73    46    44   ar
    74    38    41    1
    75    38    37    1
    76    32    34   ar
    77    42    44   ar
    78    42    41    1
