@<TRIPOS>MOLECULE
tmp/2igtC00.pdb
 191 190 0 0 0
SMALL
GASTEIGER

@<TRIPOS>ATOM
      1  N         73.5360   59.2490   55.5610 N.3   110  ARG110     -0.1245
      2  CA        74.0810   58.5330   56.7180 C.3   110  ARG110      0.1563
      3  C         73.1130   58.6080   57.9060 C.2   110  ARG110      0.2260
      4  O         73.2240   57.8290   58.8450 O.2   110  ARG110     -0.2867
      5  CB        75.4890   59.0420   57.1100 C.3   110  ARG110      0.0307
      6  CG        75.5010   60.1660   58.1260 C.3   110  ARG110      0.0489
      7  CD        76.9250   60.5280   58.6090 C.3   110  ARG110      0.2205
      8  NE        77.0740   61.9310   59.0480 N.pl3 110  ARG110     -0.0865
      9  CZ        76.2460   62.9480   58.7700 C.cat 110  ARG110      0.5346
     10  NH1       75.1430   62.7760   58.0550 N.pl3 110  ARG110      0.1354
     11  NH2       76.5200   64.1620   59.2250 N.pl3 110  ARG110      0.1354
     12  N         68.4070   61.4050   66.5010 N.3   115  PHE115     -0.1241
     13  CA        69.6480   61.7800   67.1630 C.3   115  PHE115      0.1605
     14  C         69.4250   61.4140   68.6240 C.2   115  PHE115      0.2264
     15  O         68.8810   62.2020   69.3910 O.2   115  PHE115     -0.2867
     16  CB        69.9160   63.2910   66.9980 C.3   115  PHE115      0.0534
     17  CG        70.2770   63.6830   65.5830 C.ar  115  PHE115     -0.0203
     18  CD1       71.6030   63.6300   65.1430 C.ar  115  PHE115     -0.0042
     19  CD2       69.2840   64.0520   64.6840 C.ar  115  PHE115     -0.0042
     20  CE1       71.9440   63.9880   63.8100 C.ar  115  PHE115     -0.0003
     21  CE2       69.6070   64.4020   63.3570 C.ar  115  PHE115     -0.0003
     22  CZ        70.9490   64.3770   62.9330 C.ar  115  PHE115     -0.0000
     23  N         62.8430   73.2910   62.6550 N.3   142  PHE142     -0.1241
     24  CA        63.7720   72.3140   62.0360 C.3   142  PHE142      0.1605
     25  C         63.5560   70.9410   62.6700 C.2   142  PHE142      0.2264
     26  O         64.5070   70.2570   63.0320 O.2   142  PHE142     -0.2867
     27  CB        65.2590   72.7300   62.1860 C.3   142  PHE142      0.0534
     28  CG        65.5600   74.1290   61.7160 C.ar  142  PHE142     -0.0203
     29  CD1       65.9120   74.3750   60.3920 C.ar  142  PHE142     -0.0042
     30  CD2       65.5290   75.1940   62.6030 C.ar  142  PHE142     -0.0042
     31  CE1       66.2140   75.6800   59.9600 C.ar  142  PHE142     -0.0003
     32  CE2       65.8160   76.5200   62.1790 C.ar  142  PHE142     -0.0003
     33  CZ        66.1610   76.7600   60.8700 C.ar  142  PHE142     -0.0000
     34  N         62.5330   67.9080   61.8790 N.3   144  TYR144     -0.1241
     35  CA        63.0760   66.6360   61.3670 C.3   144  TYR144      0.1605
     36  C         62.0380   65.5190   61.6190 C.2   144  TYR144      0.2264
     37  O         60.8380   65.7270   61.3560 O.2   144  TYR144     -0.2867
     38  CB        64.4480   66.3640   62.0110 C.3   144  TYR144      0.0534
     39  CG        65.2280   65.1510   61.5370 C.ar  144  TYR144     -0.0201
     40  CD1       65.3970   64.8900   60.1820 C.ar  144  TYR144     -0.0009
     41  CD2       65.8530   64.3070   62.4570 C.ar  144  TYR144     -0.0009
     42  CE1       66.1370   63.8200   59.7400 C.ar  144  TYR144      0.0417
     43  CE2       66.6070   63.2240   62.0330 C.ar  144  TYR144      0.0417
     44  CZ        66.7430   62.9880   60.6610 C.ar  144  TYR144      0.1957
     45  OH        67.4470   61.9120   60.1920 O.3   144  TYR144     -0.2866
     46  N         57.8100   72.6000   62.8620 N.3   162  VAL162     -0.1231
     47  CA        58.1030   73.3000   61.6080 C.3   162  VAL162      0.1692
     48  C         59.2970   72.6720   60.9040 C.2   162  VAL162      0.2592
     49  O         60.3770   72.5750   61.4880 O.2   162  VAL162     -0.2718
     50  CB        58.3530   74.8290   61.8050 C.3   162  VAL162      0.0266
     51  CG1       58.5360   75.5310   60.3910 C.3   162  VAL162      0.0020
     52  CG2       57.1780   75.4800   62.5830 C.3   162  VAL162      0.0020
     53  N         59.1040   72.2710   59.6500 N.am  163  ASP163     -0.1960
     54  CA        60.2020   71.7480   58.8340 C.3   163  ASP163      0.1840
     55  C         59.9020   72.0590   57.3750 C.2   163  ASP163      0.2622
     56  O         58.7590   71.9080   56.9100 O.2   163  ASP163     -0.2715
     57  CB        60.3580   70.2180   59.0330 C.3   163  ASP163      0.1450
     58  CG        61.7100   69.7030   58.5580 C.2   163  ASP163      0.3671
     59  OD1       61.9850   69.7640   57.3360 O.co2 163  ASP163     -0.2456
     60  OD2       62.5290   69.2950   59.4180 O.co2 163  ASP163     -0.2456
     61  N         60.9340   72.4720   56.6500 N.am  164  ALA164     -0.1963
     62  CA        60.8080   72.8660   55.2410 C.3   164  ALA164      0.1728
     63  C         60.5610   71.6900   54.2950 C.2   164  ALA164      0.2616
     64  O         60.0640   71.8930   53.1830 O.2   164  ALA164     -0.2715
     65  CB        62.0680   73.6160   54.7980 C.3   164  ALA164      0.0334
     66  N         60.9380   70.4830   54.7320 N.am  165  SER165     -0.1950
     67  CA        60.8500   69.2810   53.9110 C.3   165  SER165      0.1924
     68  C         59.5220   68.5400   54.1030 C.2   165  SER165      0.2314
     69  O         59.2390   68.0490   55.2030 O.2   165  SER165     -0.2863
     70  CB        62.0170   68.3350   54.2290 C.3   165  SER165      0.2116
     71  OG        61.7850   67.0490   53.6550 O.3   165  SER165     -0.2180
     72  N         60.2350   64.9970   55.2240 N.3   168  ALA168     -0.1245
     73  CA        60.5200   64.8960   56.6720 C.3   168  ALA168      0.1562
     74  C         59.2520   65.0330   57.4940 C.2   168  ALA168      0.2260
     75  O         59.1030   64.3450   58.4980 O.2   168  ALA168     -0.2867
     76  CB        61.5770   65.9220   57.1210 C.3   168  ALA168      0.0290
     77  N         57.2470   74.7210   55.9550 N.3   191  GLU191     -0.1231
     78  CA        57.5980   76.0850   55.5870 C.3   191  GLU191      0.1699
     79  C         59.0390   76.3280   56.0060 C.2   191  GLU191      0.2592
     80  O         59.5590   75.6190   56.8480 O.2   191  GLU191     -0.2718
     81  CB        56.6720   77.0810   56.3050 C.3   191  GLU191      0.0402
     82  CG        56.7930   78.5300   55.8260 C.3   191  GLU191      0.1161
     83  CD        55.6630   79.4190   56.3180 C.2   191  GLU191      0.3649
     84  OE1       54.9770   79.0790   57.3130 O.co2 191  GLU191     -0.2457
     85  OE2       55.4660   80.4650   55.6830 O.co2 191  GLU191     -0.2457
     86  N         59.6850   77.3090   55.3880 N.am  192  ASP192     -0.1960
     87  CA        60.9120   77.8650   55.9470 C.3   192  ASP192      0.1840
     88  C         60.7170   78.2880   57.4120 C.2   192  ASP192      0.2621
     89  O         59.7270   78.9540   57.7780 O.2   192  ASP192     -0.2715
     90  CB        61.4060   79.0490   55.1010 C.3   192  ASP192      0.1450
     91  CG        62.6850   79.6330   55.6420 C.2   192  ASP192      0.3671
     92  OD1       63.7710   79.0540   55.3910 O.co2 192  ASP192     -0.2456
     93  OD2       62.6110   80.6660   56.3330 O.co2 192  ASP192     -0.2456
     94  N         61.6480   77.8820   58.2620 N.am  193  ALA193     -0.1977
     95  CA        61.4820   78.0870   59.7130 C.3   193  ALA193      0.1597
     96  C         61.4930   79.5840   60.0860 C.2   193  ALA193      0.2287
     97  O         60.6460   80.0240   60.8500 O.2   193  ALA193     -0.2864
     98  CB        62.5670   77.3560   60.4800 C.3   193  ALA193      0.0319
     99  N         66.6920   73.6430   66.0260 N.3   212  ASP212     -0.1225
    100  CA        67.8200   72.7800   65.6660 C.3   212  ASP212      0.1790
    101  C         68.3250   73.0930   64.2440 C.2   212  ASP212      0.2440
    102  O         68.3290   72.2080   63.3560 O.2   212  ASP212     -0.2733
    103  CB        67.3880   71.3040   65.8220 C.3   212  ASP212      0.1423
    104  CG        68.5350   70.3210   65.6080 C.2   212  ASP212      0.3668
    105  OD1       69.6990   70.6250   65.9920 O.co2 212  ASP212     -0.2456
    106  OD2       68.2510   69.2450   65.0320 O.co2 212  ASP212     -0.2456
    107  N         68.7760   74.3490   64.0130 N.am  213  PRO213     -0.2718
    108  CA        69.1530   74.7460   62.6520 C.3   213  PRO213      0.1520
    109  C         70.3990   74.0100   62.1540 C.2   213  PRO213      0.2440
    110  O         71.3970   73.9030   62.9030 O.2   213  PRO213     -0.2731
    111  CB        69.4700   76.2410   62.8070 C.3   213  PRO213      0.0310
    112  CG        69.9910   76.3170   64.2680 C.3   213  PRO213      0.0237
    113  CD        68.9890   75.4470   64.9720 C.3   213  PRO213      0.0939
    114  N         70.3710   73.5530   60.8790 N.am  214  PRO214     -0.2716
    115  CA        71.5820   73.0060   60.2740 C.3   214  PRO214      0.1536
    116  C         72.4990   74.1540   59.8700 C.2   214  PRO214      0.2598
    117  O         72.0760   75.3190   59.8260 O.2   214  PRO214     -0.2715
    118  CB        71.0600   72.2740   59.0220 C.3   214  PRO214      0.0310
    119  CG        69.7780   73.0780   58.6240 C.3   214  PRO214      0.0237
    120  CD        69.2360   73.6220   59.9380 C.3   214  PRO214      0.0939
    121  N         73.7510   73.8380   59.5670 N.am  215  LYS215     -0.1964
    122  CA        74.6600   74.8270   59.0140 C.3   215  LYS215      0.1728
    123  C         74.1140   75.4440   57.7230 C.2   215  LYS215      0.2616
    124  O         74.2080   76.6590   57.5090 O.2   215  LYS215     -0.2715
    125  CB        76.0460   74.1970   58.7460 C.3   215  LYS215      0.0311
    126  CG        77.0830   75.2720   58.3430 C.3   215  LYS215      0.0038
    127  CD        78.5360   74.7070   58.3800 C.3   215  LYS215      0.0206
    128  CE        79.5590   75.8720   58.6850 C.3   215  LYS215      0.1093
    129  NZ        80.8080   75.5150   59.5320 N.3   215  LYS215     -0.1314
    130  N         73.5460   74.5870   56.8730 N.am  216  PHE216     -0.1960
    131  CA        72.9940   75.0060   55.5880 C.3   216  PHE216      0.1771
    132  C         71.6410   74.3450   55.4200 C.2   216  PHE216      0.2620
    133  O         71.4770   73.1790   55.7580 O.2   216  PHE216     -0.2715
    134  CB        73.8950   74.5450   54.4270 C.3   216  PHE216      0.0574
    135  CG        75.3100   75.0460   54.4940 C.ar  216  PHE216     -0.0200
    136  CD1       75.6060   76.3940   54.2850 C.ar  216  PHE216     -0.0042
    137  CD2       76.3630   74.1590   54.7170 C.ar  216  PHE216     -0.0042
    138  CE1       76.9230   76.8560   54.3310 C.ar  216  PHE216     -0.0003
    139  CE2       77.6820   74.6240   54.7570 C.ar  216  PHE216     -0.0003
    140  CZ        77.9500   75.9760   54.5590 C.ar  216  PHE216     -0.0000
    141  N         70.6730   75.0780   54.8880 N.am  217  GLY217     -0.1940
    142  CA        69.3740   74.4840   54.6030 C.3   217  GLY217      0.2014
    143  C         68.6750   75.2630   53.5050 C.2   217  GLY217      0.2639
    144  O         69.2200   76.2610   53.0130 O.2   217  GLY217     -0.2714
    145  N         67.5060   74.7790   53.0800 N.am  218  ARG218     -0.1963
    146  CA        66.6750   75.4660   52.0910 C.3   218  ARG218      0.1729
    147  C         65.2440   75.4560   52.6030 C.2   218  ARG218      0.2616
    148  O         64.7620   74.4300   53.0920 O.2   218  ARG218     -0.2715
    149  CB        66.7030   74.7780   50.7150 C.3   218  ARG218      0.0348
    150  CG        68.0630   74.4640   50.0710 C.3   218  ARG218      0.0492
    151  CD        68.9630   75.6900   49.9060 C.3   218  ARG218      0.2205
    152  NE        69.5190   75.8800   48.5590 N.pl3 218  ARG218     -0.0865
    153  CZ        70.2070   74.9820   47.8530 C.cat 218  ARG218      0.5346
    154  NH1       70.4300   73.7520   48.3110 N.pl3 218  ARG218      0.1354
    155  NH2       70.6610   75.3210   46.6560 N.pl3 218  ARG218      0.1354
    156  N         64.5650   76.5990   52.4940 N.am  219  GLY219     -0.1955
    157  CA        63.1600   76.6930   52.8560 C.3   219  GLY219      0.1869
    158  C         62.2970   75.9960   51.8110 C.2   219  GLY219      0.2309
    159  O         62.7670   75.5960   50.7420 O.2   219  GLY219     -0.2863
    160  N         69.0120   79.0500   53.7340 N.3   225  TRP225     -0.1241
    161  CA        69.3190   79.1490   55.1770 C.3   225  TRP225      0.1605
    162  C         70.8140   78.8820   55.3780 C.2   225  TRP225      0.2264
    163  O         71.3460   77.8660   54.9020 O.2   225  TRP225     -0.2867
    164  CB        68.4880   78.1460   56.0140 C.3   225  TRP225      0.0550
    165  CG        68.9930   78.0430   57.4350 C.ar  225  TRP225      0.0003
    166  CD1       69.8730   77.1080   57.9250 C.ar  225  TRP225      0.0946
    167  CD2       68.7230   78.9440   58.5190 C.ar  225  TRP225      0.0152
    168  NE1       70.1500   77.3610   59.2470 N.ar  225  TRP225     -0.2442
    169  CE2       69.4520   78.4770   59.6410 C.ar  225  TRP225      0.0810
    170  CE3       67.9210   80.0980   58.6550 C.ar  225  TRP225      0.0012
    171  CZ2       69.4220   79.1220   60.8770 C.ar  225  TRP225      0.0191
    172  CZ3       67.8730   80.7390   59.9060 C.ar  225  TRP225      0.0001
    173  CH2       68.6180   80.2520   60.9960 C.ar  225  TRP225      0.0015
    174  N         74.5280   71.3660   65.1430 N.3   253  TYR253     -0.1227
    175  CA        75.4070   70.2770   64.6710 C.3   253  TYR253      0.1736
    176  C         76.3520   70.7260   63.5570 C.2   253  TYR253      0.2596
    177  O         75.9490   71.4670   62.6470 O.2   253  TYR253     -0.2718
    178  CB        74.5580   69.1130   64.1130 C.3   253  TYR253      0.0548
    179  CG        73.9600   68.2090   65.1550 C.ar  253  TYR253     -0.0200
    180  CD1       74.5430   66.9760   65.4540 C.ar  253  TYR253     -0.0009
    181  CD2       72.7910   68.5770   65.8460 C.ar  253  TYR253     -0.0009
    182  CE1       73.9850   66.1340   66.4330 C.ar  253  TYR253      0.0417
    183  CE2       72.2300   67.7410   66.8050 C.ar  253  TYR253      0.0417
    184  CZ        72.8380   66.5320   67.0970 C.ar  253  TYR253      0.1957
    185  OH        72.2830   65.7190   68.0540 O.3   253  TYR253     -0.2866
    186  N         77.6050   70.2720   63.6050 N.am  254  SER254     -0.1952
    187  CA        78.3990   70.2310   62.3610 C.3   254  SER254      0.1924
    188  C         78.8170   71.6300   61.8730 C.2   254  SER254      0.2314
    189  O         78.5470   72.0430   60.7390 O.2   254  SER254     -0.2863
    190  CB        77.6140   69.5090   61.2460 C.3   254  SER254      0.2116
    191  OG        77.5350   68.1200   61.4950 O.3   254  SER254     -0.2180
@<TRIPOS>BOND
     1   155   153    1
     2   153   154    1
     3   153   152    2
     4   152   151    1
     5   151   150    1
     6   150   149    1
     7   149   146    1
     8   159   158    2
     9   158   157    1
    10   146   147    1
    11   146   145    1
    12   156   147   am
    13   156   157    1
    14   147   148    2
    15   144   143    2
    16   145   143   am
    17    64    63    2
    18   143   142    1
    19    71    70    1
    20   160   161    1
    21    67    68    1
    22    67    70    1
    23    67    66    1
    24    68    69    2
    25   136   138   ar
    26   136   135   ar
    27    63    66   am
    28    63    62    1
    29   138   140   ar
    30   134   135    1
    31   134   131    1
    32   135   137   ar
    33   140   139   ar
    34   142   141    1
    35   137   139   ar
    36    65    62    1
    37   141   132   am
    38   163   162    2
    39    90    91    1
    40    90    87    1
    41   161   162    1
    42   161   164    1
    43    72    73    1
    44    62    61    1
    45    86    87    1
    46    86    79   am
    47    92    91   ar
    48   132   131    1
    49   132   133    2
    50     1     2    1
    51    78    77    1
    52    78    79    1
    53    78    81    1
    54   131   130    1
    55    91    93   ar
    56    85    83   ar
    57    82    81    1
    58    82    83    1
    59    87    88    1
    60    79    80    2
    61   164   165    1
    62    83    84   ar
    63    61    55   am
    64    73    76    1
    65    73    74    1
    66     2     5    1
    67     2     3    1
    68   130   123   am
    69    56    55    2
    70     5     6    1
    71    59    58   ar
    72    55    54    1
    73    88    89    2
    74    88    94   am
    75   165   166   ar
    76   165   167   ar
    77    74    75    2
    78   124   123    2
    79   123   122    1
    80     3     4    2
    81   166   168   ar
    82    10     9    1
    83     6     7    1
    84    94    95    1
    85   126   127    1
    86   126   125    1
    87   127   128    1
    88   167   170   ar
    89   167   169   ar
    90    58    57    1
    91    58    60   ar
    92     7     8    1
    93   119   118    1
    94   119   120    1
    95   170   172   ar
    96   128   129    1
    97   125   122    1
    98     9     8    2
    99     9    11    1
   100    54    57    1
   101    54    53    1
   102   122   121    1
   103   118   115    1
   104   168   169   ar
   105   121   116   am
   106   169   171   ar
   107    53    48   am
   108    95    96    1
   109    95    98    1
   110    42    40   ar
   111    42    44   ar
   112   117   116    2
   113   116   115    1
   114   172   173   ar
   115   120   114    1
   116    31    29   ar
   117    31    33   ar
   118    96    97    2
   119    40    39   ar
   120    45    44    1
   121   115   114    1
   122    51    50    1
   123    29    28   ar
   124    44    43   ar
   125   189   188    2
   126    33    32   ar
   127   171   173   ar
   128   114   109   am
   129    48    49    2
   130    48    47    1
   131   190   191    1
   132   190   187    1
   133    37    36    2
   134    35    36    1
   135    35    34    1
   136    35    38    1
   137    39    38    1
   138    39    41   ar
   139    47    50    1
   140    47    46    1
   141    28    27    1
   142    28    30   ar
   143    50    52    1
   144   188   187    1
   145    43    41   ar
   146    24    27    1
   147    24    23    1
   148    24    25    1
   149   109   108    1
   150   109   110    2
   151    32    30   ar
   152   187   186    1
   153   177   176    2
   154   108   111    1
   155   108   107    1
   156    25    26    2
   157   111   112    1
   158    22    21   ar
   159    22    20   ar
   160   102   101    2
   161    21    19   ar
   162   176   186   am
   163   176   175    1
   164    20    18   ar
   165   107   101   am
   166   107   113    1
   167   178   175    1
   168   178   179    1
   169   101   100    1
   170   112   113    1
   171   175   174    1
   172    19    17   ar
   173   106   104   ar
   174    18    17   ar
   175   179   180   ar
   176   179   181   ar
   177   180   182   ar
   178    17    16    1
   179   104   103    1
   180   104   105   ar
   181   100   103    1
   182   100    99    1
   183   181   183   ar
   184   182   184   ar
   185    12    13    1
   186   183   184   ar
   187    16    13    1
   188   184   185    1
   189    13    14    1
   190    14    15    2
