@<TRIPOS>MOLECULE
tmp/2igvA00.pdb
 86 82 0 0 0
SMALL
GASTEIGER

@<TRIPOS>ATOM
      1  N         44.2320   23.5010   20.5820 N.3    62  ARG62      -0.1245
      2  CA        44.3410   22.0620   20.7910 C.3    62  ARG62       0.1563
      3  C         45.6120   21.8270   21.5890 C.2    62  ARG62       0.2260
      4  O         46.6990   22.1680   21.1030 O.2    62  ARG62      -0.2867
      5  CB        44.3730   21.3130   19.4730 C.3    62  ARG62       0.0307
      6  CG        44.6420   19.8290   19.5730 C.3    62  ARG62       0.0489
      7  CD        44.3280   19.1790   18.2260 C.3    62  ARG62       0.2205
      8  NE        44.7860   17.8020   18.1740 N.pl3  62  ARG62      -0.0865
      9  CZ        44.1120   16.7590   18.6430 C.cat  62  ARG62       0.5346
     10  NH1       42.9180   16.9180   19.2260 N.pl3  62  ARG62       0.1354
     11  NH2       44.6450   15.5500   18.5260 N.pl3  62  ARG62       0.1354
     12  N         52.5420   15.7350   24.8160 N.3    67  PHE67      -0.1227
     13  CA        52.5790   15.6260   23.3490 C.3    67  PHE67       0.1736
     14  C         52.9210   16.9780   22.7180 C.2    67  PHE67       0.2595
     15  O         54.0910   17.1420   22.3050 O.2    67  PHE67      -0.2718
     16  CB        51.2760   15.1030   22.7710 C.3    67  PHE67       0.0547
     17  CG        51.2190   14.7720   21.2810 C.ar   67  PHE67      -0.0202
     18  CD1       52.3100   14.7280   20.4270 C.ar   67  PHE67      -0.0042
     19  CD2       49.9930   14.4890   20.7160 C.ar   67  PHE67      -0.0042
     20  CE1       52.1880   14.4370   19.0930 C.ar   67  PHE67      -0.0003
     21  CE2       49.8360   14.1940   19.3690 C.ar   67  PHE67      -0.0003
     22  CZ        50.9460   14.1720   18.5540 C.ar   67  PHE67      -0.0000
     23  N         51.9420   17.8660   22.5940 N.am   68  MET68      -0.1979
     24  CA        52.2390   19.1390   21.9100 C.3    68  MET68       0.1605
     25  C         51.1520   20.1720   22.1700 C.2    68  MET68       0.2287
     26  O         50.0720   19.8610   22.6820 O.2    68  MET68      -0.2864
     27  CB        52.4290   18.9070   20.4110 C.3    68  MET68       0.0413
     28  CG        51.2320   18.2760   19.7150 C.3    68  MET68       0.0598
     29  SD        49.9210   19.4100   19.2660 S.3    68  MET68      -0.1393
     30  CE        48.4330   18.5190   19.7310 C.3    68  MET68       0.0692
     31  N         49.0990   23.3170   20.1170 N.3    70  GLN70      -0.1245
     32  CA        48.8280   23.6140   18.6990 C.3    70  GLN70       0.1566
     33  C         47.9850   24.8550   18.5200 C.2    70  GLN70       0.2260
     34  O         47.0000   25.0840   19.2110 O.2    70  GLN70      -0.2867
     35  CB        48.1450   22.3780   18.0970 C.3    70  GLN70       0.0367
     36  CG        47.8290   22.5060   16.6100 C.3    70  GLN70       0.0905
     37  CD        47.2510   21.1980   16.0580 C.2    70  GLN70       0.2608
     38  OE1       46.2020   21.2340   15.4110 O.2    70  GLN70      -0.2717
     39  NE2       47.9140   20.0830   16.3240 N.am   70  GLN70      -0.0878
     40  N         51.1760   21.8190   11.4770 N.3   108  ALA108     -0.1231
     41  CA        49.9890   20.9680   11.5200 C.3   108  ALA108      0.1694
     42  C         49.4210   20.8010   10.1090 C.2   108  ALA108      0.2592
     43  O         49.7270   21.6680    9.2810 O.2   108  ALA108     -0.2718
     44  CB        48.9280   21.5800   12.4230 C.3   108  ALA108      0.0304
     45  N         48.6520   19.7470    9.8600 N.am  109  ASN109     -0.1960
     46  CA        48.0720   19.6410    8.5040 C.3   109  ASN109      0.1819
     47  C         46.8680   18.7110    8.5100 C.2   109  ASN109      0.2621
     48  O         46.5260   18.1550    9.5500 O.2   109  ASN109     -0.2715
     49  CB        49.1540   19.2190    7.5070 C.3   109  ASN109      0.1195
     50  CG        49.8550   17.9010    7.7200 C.2   109  ASN109      0.2630
     51  OD1       51.0900   17.7670    7.6740 O.2   109  ASN109     -0.2716
     52  ND2       49.1150   16.8400    7.9680 N.am  109  ASN109     -0.0877
     53  N         46.2820   18.5010    7.3440 N.am  110  ALA110     -0.1977
     54  CA        45.1750   17.5770    7.1120 C.3   110  ALA110      0.1597
     55  C         45.5670   16.5070    6.1030 C.2   110  ALA110      0.2287
     56  O         44.7880   15.9650    5.3150 O.2   110  ALA110     -0.2864
     57  CB        43.9510   18.3460    6.6510 C.3   110  ALA110      0.0319
     58  N         52.4660   23.3620   15.4990 N.3   120  PHE120     -0.1241
     59  CA        52.5140   22.8660   16.8850 C.3   120  PHE120      0.1605
     60  C         53.9290   22.9620   17.4250 C.2   120  PHE120      0.2264
     61  O         54.9190   22.9250   16.7000 O.2   120  PHE120     -0.2867
     62  CB        51.9480   21.4560   16.9730 C.3   120  PHE120      0.0534
     63  CG        52.6250   20.3750   16.1550 C.ar  120  PHE120     -0.0203
     64  CD1       52.3100   20.2530   14.8000 C.ar  120  PHE120     -0.0042
     65  CD2       53.5490   19.5100   16.7150 C.ar  120  PHE120     -0.0042
     66  CE1       52.9310   19.2620   14.0750 C.ar  120  PHE120     -0.0003
     67  CE2       54.1650   18.4980   15.9870 C.ar  120  PHE120     -0.0003
     68  CZ        53.8410   18.3780   14.6430 C.ar  120  PHE120     -0.0000
     69  N         55.8310   11.4420   13.8510 N.3   129  LEU129     -0.1245
     70  CA        55.3670   12.4600   12.9120 C.3   129  LEU129      0.1561
     71  C         56.4150   12.7620   11.8440 C.2   129  LEU129      0.2260
     72  O         56.1350   13.5220   10.9030 O.2   129  LEU129     -0.2867
     73  CB        55.0370   13.7830   13.6340 C.3   129  LEU129      0.0270
     74  CG        53.9540   13.6570   14.7130 C.3   129  LEU129      0.0019
     75  CD1       53.7750   14.9970   15.4190 C.3   129  LEU129      0.0001
     76  CD2       52.6360   13.1390   14.1380 C.3   129  LEU129      0.0001
     77  N         54.8390   15.6600    8.9460 N.3   133  HIS133     -0.1241
     78  CA        54.7610   17.0820    9.2690 C.3   133  HIS133      0.1621
     79  C         56.1030   17.7440    9.0080 C.2   133  HIS133      0.2264
     80  O         57.1690   17.2050    9.3430 O.2   133  HIS133     -0.2867
     81  CB        54.3260   17.2540   10.7300 C.3   133  HIS133      0.0745
     82  CG        52.9530   16.6860   10.9550 C.ar  133  HIS133      0.0817
     83  ND1       51.8200   17.4590   10.9000 N.ar  133  HIS133     -0.2268
     84  CD2       52.5230   15.4260   11.2140 C.ar  133  HIS133      0.1154
     85  CE1       50.7640   16.7000   11.1210 C.ar  133  HIS133      0.1986
     86  NE2       51.1660   15.4650   11.3100 N.ar  133  HIS133     -0.2212
@<TRIPOS>BOND
     1    56    55    2
     2    55    54    1
     3    57    54    1
     4    54    53    1
     5    53    47   am
     6    49    50    1
     7    49    46    1
     8    51    50    2
     9    50    52   am
    10    46    47    1
    11    46    45    1
    12    47    48    2
    13    77    78    1
    14    79    78    1
    15    79    80    2
    16    78    81    1
    17    43    42    2
    18    45    42   am
    19    42    41    1
    20    81    82    1
    21    83    82   ar
    22    83    85   ar
    23    72    71    2
    24    82    84   ar
    25    85    86   ar
    26    84    86   ar
    27    40    41    1
    28    41    44    1
    29    71    70    1
    30    70    73    1
    31    70    69    1
    32    73    74    1
    33    66    68   ar
    34    66    64   ar
    35    76    74    1
    36    68    67   ar
    37    74    75    1
    38    64    63   ar
    39    38    37    2
    40    58    59    1
    41    67    65   ar
    42    37    39   am
    43    37    36    1
    44    63    65   ar
    45    63    62    1
    46    36    35    1
    47    61    60    2
    48    59    62    1
    49    59    60    1
    50    35    32    1
    51     8     7    1
    52     8     9    2
    53     7     6    1
    54    33    32    1
    55    33    34    2
    56    11     9    1
    57    22    20   ar
    58    22    21   ar
    59     9    10    1
    60    32    31    1
    61    20    18   ar
    62    29    28    1
    63    29    30    1
    64    21    19   ar
    65     5     6    1
    66     5     2    1
    67    28    27    1
    68    27    24    1
    69    18    17   ar
    70     1     2    1
    71    19    17   ar
    72     2     3    1
    73     4     3    2
    74    17    16    1
    75    24    25    1
    76    24    23    1
    77    25    26    2
    78    15    14    2
    79    23    14   am
    80    14    13    1
    81    16    13    1
    82    13    12    1
