@<TRIPOS>MOLECULE
tmp/2ih8A01.pdb
 196 193 0 0 0
SMALL
GASTEIGER

@<TRIPOS>ATOM
      1  N        -36.0520   52.4980   21.4350 N.3    42  GLU42      -0.1245
      2  CA       -34.6310   52.5590   21.1480 C.3    42  GLU42       0.1567
      3  C        -34.1110   53.8180   21.8280 C.2    42  GLU42       0.2260
      4  O        -34.5330   54.9280   21.4940 O.2    42  GLU42      -0.2867
      5  CB       -34.4240   52.6220   19.6370 C.3    42  GLU42       0.0388
      6  CG       -33.0380   52.2480   19.1700 C.3    42  GLU42       0.1160
      7  CD       -33.0070   51.8960   17.7000 C.2    42  GLU42       0.3649
      8  OE1      -33.9510   51.2320   17.2250 O.co2  42  GLU42      -0.2457
      9  OE2      -32.0410   52.2820   17.0150 O.co2  42  GLU42      -0.2457
     10  N        -23.9080   53.4640   24.2240 N.3    55  GLU55      -0.1231
     11  CA       -24.2230   54.0950   22.9370 C.3    55  GLU55       0.1699
     12  C        -25.6980   53.9310   22.5460 C.2    55  GLU55       0.2592
     13  O        -26.3670   54.9110   22.2100 O.2    55  GLU55      -0.2718
     14  CB       -23.3290   53.4810   21.8500 C.3    55  GLU55       0.0402
     15  CG       -23.4580   54.0900   20.4530 C.3    55  GLU55       0.1161
     16  CD       -22.9760   53.1560   19.3480 C.2    55  GLU55       0.3649
     17  OE1      -22.0450   52.3510   19.5840 O.co2  55  GLU55      -0.2457
     18  OE2      -23.5350   53.2300   18.2320 O.co2  55  GLU55      -0.2457
     19  N        -26.1940   52.6960   22.6390 N.am   56  LYS56      -0.1980
     20  CA       -27.5700   52.3710   22.2850 C.3    56  LYS56       0.1596
     21  C        -28.0650   51.1260   23.0130 C.2    56  LYS56       0.2287
     22  O        -27.3090   50.1770   23.2320 O.2    56  LYS56      -0.2864
     23  CB       -27.6760   52.1450   20.7670 C.3    56  LYS56       0.0298
     24  CG       -29.0960   51.9310   20.2160 C.3    56  LYS56       0.0038
     25  CD       -29.0760   51.5510   18.7410 C.3    56  LYS56       0.0206
     26  CE       -28.7070   52.7180   17.8210 C.3    56  LYS56       0.1093
     27  NZ       -29.7710   53.7560   17.7710 N.3    56  LYS56      -0.1314
     28  N        -32.0460   48.8200   23.6520 N.3    58  MET58      -0.1245
     29  CA       -33.4070   48.5720   23.1830 C.3    58  MET58       0.1570
     30  C        -34.1230   48.0390   24.4080 C.2    58  MET58       0.2261
     31  O        -33.8550   46.9280   24.8650 O.2    58  MET58      -0.2867
     32  CB       -33.4070   47.5820   22.0230 C.3    58  MET58       0.0387
     33  CG       -32.7170   48.1360   20.7810 C.3    58  MET58       0.0595
     34  SD       -32.5250   46.9630   19.4670 S.3    58  MET58      -0.1393
     35  CE       -31.5100   47.9220   18.3300 C.3    58  MET58       0.0692
     36  N        -35.3140   50.8230   13.3970 N.3    87  THR87      -0.1203
     37  CA       -35.1370   49.9720   12.2190 C.3    87  THR87       0.1994
     38  C        -35.4520   48.4970   12.3980 C.2    87  THR87       0.2617
     39  O        -36.0110   47.8550   11.4990 O.2    87  THR87      -0.2717
     40  CB       -33.6940   50.0660   11.6850 C.3    87  THR87       0.1784
     41  OG1      -32.7720   49.6630   12.7100 O.3    87  THR87      -0.2211
     42  CG2      -33.3760   51.4810   11.2250 C.3    87  THR87       0.0376
     43  N        -35.0670   47.9700   13.5560 N.am   88  ASN88      -0.1974
     44  CA       -35.2410   46.5670   13.9020 C.3    88  ASN88       0.1688
     45  C        -36.6530   46.0410   14.0300 C.2    88  ASN88       0.2292
     46  O        -37.5390   46.6990   14.5770 O.2    88  ASN88      -0.2864
     47  CB       -34.5940   46.2790   15.2570 C.3    88  ASN88       0.1181
     48  CG       -33.1040   46.1030   15.1920 C.2    88  ASN88       0.2629
     49  OD1      -32.5360   45.4500   16.0700 O.2    88  ASN88      -0.2716
     50  ND2      -32.4560   46.6940   14.1940 N.am   88  ASN88      -0.0877
     51  N        -34.6670   38.1590   17.5110 N.3   141  PHE141     -0.1227
     52  CA       -34.2850   38.9220   16.3150 C.3   141  PHE141      0.1736
     53  C        -32.7820   39.1240   16.4000 C.2   141  PHE141      0.2596
     54  O        -32.3110   40.1070   16.9820 O.2   141  PHE141     -0.2718
     55  CB       -35.0230   40.2760   16.2810 C.3   141  PHE141      0.0547
     56  CG       -34.8370   41.0520   14.9990 C.ar  141  PHE141     -0.0202
     57  CD1      -35.6820   40.8220   13.9030 C.ar  141  PHE141     -0.0042
     58  CD2      -33.8470   42.0510   14.8940 C.ar  141  PHE141     -0.0042
     59  CE1      -35.5540   41.5830   12.7110 C.ar  141  PHE141     -0.0003
     60  CE2      -33.7040   42.8170   13.7110 C.ar  141  PHE141     -0.0003
     61  CZ       -34.5620   42.5870   12.6180 C.ar  141  PHE141     -0.0000
     62  N        -32.0330   38.2030   15.7920 N.am  142  SER142     -0.1952
     63  CA       -30.5700   38.2060   15.8350 C.3   142  SER142      0.1924
     64  C        -30.1500   38.2080   17.3160 C.2   142  SER142      0.2314
     65  O        -30.7460   37.4730   18.1140 O.2   142  SER142     -0.2863
     66  CB       -29.9800   39.3700   15.0210 C.3   142  SER142      0.2116
     67  OG       -30.2560   39.1770   13.6420 O.3   142  SER142     -0.2180
     68  N        -29.2200   43.8990   23.7800 N.3   147  ASN147     -0.1240
     69  CA       -29.4270   45.3420   23.9110 C.3   147  ASN147      0.1653
     70  C        -30.4360   45.6710   25.0180 C.2   147  ASN147      0.2266
     71  O        -30.6670   46.8460   25.3170 O.2   147  ASN147     -0.2867
     72  CB       -29.9030   45.9460   22.5850 C.3   147  ASN147      0.1155
     73  CG       -28.8210   45.9890   21.5340 C.2   147  ASN147      0.2627
     74  OD1      -27.6330   46.0760   21.8480 O.2   147  ASN147     -0.2716
     75  ND2      -29.2250   45.9410   20.2700 N.am  147  ASN147     -0.0877
     76  N        -20.7450   47.8160   24.3420 N.3   178  ARG178     -0.1231
     77  CA       -20.9830   47.7920   22.9100 C.3   178  ARG178      0.1694
     78  C        -22.3350   47.1340   22.6460 C.2   178  ARG178      0.2591
     79  O        -22.7520   46.2290   23.3840 O.2   178  ARG178     -0.2718
     80  CB       -19.8630   47.0310   22.2010 C.3   178  ARG178      0.0321
     81  CG       -18.5070   47.7200   22.2810 C.3   178  ARG178      0.0489
     82  CD       -17.3960   46.8550   21.7050 C.3   178  ARG178      0.2205
     83  NE       -17.5690   46.6050   20.2730 N.pl3 178  ARG178     -0.0865
     84  CZ       -16.6680   46.0200   19.4860 C.cat 178  ARG178      0.5346
     85  NH1      -15.5030   45.6060   19.9770 N.pl3 178  ARG178      0.1354
     86  NH2      -16.9280   45.8640   18.1940 N.pl3 178  ARG178      0.1354
     87  N        -23.0350   47.6320   21.6310 N.am  179  ALA179     -0.1980
     88  CA       -24.3500   47.1160   21.2490 C.3   179  ALA179      0.1597
     89  C        -24.2500   45.7240   20.6240 C.2   179  ALA179      0.2287
     90  O        -23.1940   45.3410   20.1190 O.2   179  ALA179     -0.2864
     91  CB       -25.0380   48.0840   20.3020 C.3   179  ALA179      0.0319
     92  N        -25.4110   44.2780   17.8010 N.3   181  ASP181     -0.1225
     93  CA       -25.0530   44.1660   16.3810 C.3   181  ASP181      0.1805
     94  C        -23.5740   44.4110   16.1050 C.2   181  ASP181      0.2597
     95  O        -23.0070   43.8120   15.1910 O.2   181  ASP181     -0.2718
     96  CB       -25.9230   45.0820   15.5180 C.3   181  ASP181      0.1424
     97  CG       -27.3740   44.6360   15.4880 C.2   181  ASP181      0.3668
     98  OD1      -27.6650   43.6150   14.8340 O.co2 181  ASP181     -0.2456
     99  OD2      -28.2150   45.2860   16.1420 O.co2 181  ASP181     -0.2456
    100  N        -22.9530   45.2620   16.9230 N.am  182  ASP182     -0.1974
    101  CA       -21.5240   45.5610   16.8020 C.3   182  ASP182      0.1709
    102  C        -20.7290   44.3660   17.3160 C.2   182  ASP182      0.2293
    103  O        -19.6780   44.0310   16.7720 O.2   182  ASP182     -0.2864
    104  CB       -21.1590   46.8180   17.5890 C.3   182  ASP182      0.1436
    105  CG       -21.6550   48.0920   16.9240 C.2   182  ASP182      0.3671
    106  OD1      -21.6080   48.1810   15.6740 O.co2 182  ASP182     -0.2456
    107  OD2      -22.0870   49.0100   17.6550 O.co2 182  ASP182     -0.2456
    108  N        -20.9470   41.4680   14.6910 N.3   185  HIS185     -0.1241
    109  CA       -19.9660   41.7830   13.6480 C.3   185  HIS185      0.1621
    110  C        -18.5390   41.4680   14.1300 C.2   185  HIS185      0.2264
    111  O        -17.7320   40.9100   13.3760 O.2   185  HIS185     -0.2867
    112  CB       -20.0880   43.2660   13.2470 C.3   185  HIS185      0.0745
    113  CG       -19.1360   43.6880   12.1690 C.ar  185  HIS185      0.0817
    114  ND1      -19.3000   43.3250   10.8500 N.ar  185  HIS185     -0.2268
    115  CD2      -17.9900   44.4090   12.2220 C.ar  185  HIS185      0.1154
    116  CE1      -18.2920   43.8000   10.1380 C.ar  185  HIS185      0.1986
    117  NE2      -17.4840   44.4600   10.9470 N.ar  185  HIS185     -0.2212
    118  N        -36.7260   35.8350    7.4080 N.3   384  TRP384     -0.1241
    119  CA       -37.6350   36.6420    8.2190 C.3   384  TRP384      0.1605
    120  C        -38.9500   36.9030    7.4830 C.2   384  TRP384      0.2264
    121  O        -40.0140   36.9180    8.0980 O.2   384  TRP384     -0.2867
    122  CB       -36.9810   37.9790    8.5630 C.3   384  TRP384      0.0550
    123  CG       -35.9410   37.9540    9.6680 C.ar  384  TRP384      0.0003
    124  CD1      -35.8310   37.0500   10.7010 C.ar  384  TRP384      0.0946
    125  CD2      -34.8860   38.9020    9.8540 C.ar  384  TRP384      0.0152
    126  NE1      -34.7710   37.3820   11.5130 N.ar  384  TRP384     -0.2442
    127  CE2      -34.1710   38.5120   11.0210 C.ar  384  TRP384      0.0810
    128  CE3      -34.4670   40.0520    9.1470 C.ar  384  TRP384      0.0012
    129  CZ2      -33.0480   39.2340   11.5010 C.ar  384  TRP384      0.0191
    130  CZ3      -33.3490   40.7730    9.6210 C.ar  384  TRP384      0.0001
    131  CH2      -32.6510   40.3540   10.7920 C.ar  384  TRP384      0.0015
    132  N        -39.6810   45.7100    5.1960 N.3   547  TRP547     -0.1241
    133  CA       -38.3050   45.3260    4.8390 C.3   547  TRP547      0.1605
    134  C        -37.5170   46.0850    3.7480 C.2   547  TRP547      0.2264
    135  O        -36.3730   46.4660    4.0140 O.2   547  TRP547     -0.2867
    136  CB       -38.1390   43.7850    4.7430 C.3   547  TRP547      0.0550
    137  CG       -36.7010   43.3030    4.5280 C.ar  547  TRP547      0.0003
    138  CD1      -36.1970   42.7190    3.3940 C.ar  547  TRP547      0.0946
    139  CD2      -35.5940   43.4140    5.4440 C.ar  547  TRP547      0.0152
    140  NE1      -34.8530   42.4700    3.5380 N.ar  547  TRP547     -0.2442
    141  CE2      -34.4510   42.8830    4.7820 C.ar  547  TRP547      0.0810
    142  CE3      -35.4500   43.9120    6.7600 C.ar  547  TRP547      0.0012
    143  CZ2      -33.1720   42.8330    5.3910 C.ar  547  TRP547      0.0191
    144  CZ3      -34.1700   43.8620    7.3750 C.ar  547  TRP547      0.0001
    145  CH2      -33.0490   43.3230    6.6790 C.ar  547  TRP547      0.0015
    146  N        -35.8320   49.2820    5.0280 N.3   550  ASN550     -0.1226
    147  CA       -34.8080   49.1610    6.0750 C.3   550  ASN550      0.1770
    148  C        -33.4280   49.5170    5.5020 C.2   550  ASN550      0.2439
    149  O        -33.0140   48.9410    4.4920 O.2   550  ASN550     -0.2733
    150  CB       -34.7980   47.7390    6.6550 C.3   550  ASN550      0.1168
    151  CG       -34.0700   47.6510    7.9950 C.2   550  ASN550      0.2627
    152  OD1      -34.5040   48.2240    8.9840 O.2   550  ASN550     -0.2716
    153  ND2      -32.9630   46.9350    8.0220 N.am  550  ASN550     -0.0877
    154  N        -32.7220   50.4940    6.1190 N.am  551  PRO551     -0.2718
    155  CA       -31.3960   50.9200    5.6570 C.3   551  PRO551      0.1535
    156  C        -30.2310   49.9960    6.0210 C.2   551  PRO551      0.2598
    157  O        -29.1010   50.2250    5.5880 O.2   551  PRO551     -0.2715
    158  CB       -31.2420   52.2900    6.3180 C.3   551  PRO551      0.0310
    159  CG       -31.9210   52.1000    7.6250 C.3   551  PRO551      0.0237
    160  CD       -33.1800   51.3640    7.2270 C.3   551  PRO551      0.0939
    161  N        -30.5170   48.9680    6.8200 N.am  552  TYR552     -0.1961
    162  CA       -29.5040   48.0170    7.2770 C.3   552  TYR552      0.1756
    163  C        -29.7260   46.5850    6.7840 C.2   552  TYR552      0.2461
    164  O        -30.8670   46.1230    6.7050 O.2   552  TYR552     -0.2730
    165  CB       -29.4450   47.9960    8.8160 C.3   552  TYR552      0.0574
    166  CG       -29.1420   49.3220    9.4840 C.ar  552  TYR552     -0.0198
    167  CD1      -28.0690   50.1400    9.0510 C.ar  552  TYR552     -0.0009
    168  CD2      -29.9230   49.7680   10.5650 C.ar  552  TYR552     -0.0009
    169  CE1      -27.7870   51.3810    9.6910 C.ar  552  TYR552      0.0417
    170  CE2      -29.6510   51.0020   11.2140 C.ar  552  TYR552      0.0417
    171  CZ       -28.5850   51.7980   10.7690 C.ar  552  TYR552      0.1957
    172  OH       -28.3280   52.9900   11.3980 O.3   552  TYR552     -0.2866
    173  N        -28.6380   45.8760    6.4080 N.am  553  PRO553     -0.2716
    174  CA       -28.8140   44.4970    5.9430 C.3   553  PRO553      0.1536
    175  C        -28.8180   43.4990    7.1130 C.2   553  PRO553      0.2598
    176  O        -28.4890   43.8540    8.2480 O.2   553  PRO553     -0.2715
    177  CB       -27.5960   44.2920    5.0440 C.3   553  PRO553      0.0310
    178  CG       -26.5310   45.0870    5.7420 C.3   553  PRO553      0.0237
    179  CD       -27.2670   46.3550    6.1190 C.3   553  PRO553      0.0939
    180  N        -29.2460   42.2750    6.8260 N.am  554  LYS554     -0.1964
    181  CA       -29.2570   41.1800    7.7940 C.3   554  LYS554      0.1728
    182  C        -27.8270   40.6230    7.7000 C.2   554  LYS554      0.2616
    183  O        -27.4190   40.1190    6.6440 O.2   554  LYS554     -0.2715
    184  CB       -30.3000   40.1470    7.3590 C.3   554  LYS554      0.0311
    185  CG       -30.3620   38.8440    8.1380 C.3   554  LYS554      0.0038
    186  CD       -31.5530   38.0610    7.6160 C.3   554  LYS554      0.0206
    187  CE       -31.6260   36.6610    8.1520 C.3   554  LYS554      0.1093
    188  NZ       -30.5790   35.8200    7.5490 N.3   554  LYS554     -0.1314
    189  N        -27.0550   40.8140    8.7700 N.am  555  ILE555     -0.1977
    190  CA       -25.6550   40.3800    8.8270 C.3   555  ILE555      0.1596
    191  C        -25.3980   38.9730    9.3750 C.2   555  ILE555      0.2287
    192  O        -24.2740   38.4640    9.2670 O.2   555  ILE555     -0.2864
    193  CB       -24.7640   41.4020    9.6130 C.3   555  ILE555      0.0276
    194  CG1      -25.3180   41.6400   11.0300 C.3   555  ILE555      0.0022
    195  CG2      -24.6390   42.7070    8.8190 C.3   555  ILE555      0.0022
    196  CD1      -24.3670   42.3810   11.9770 C.3   555  ILE555      0.0001
@<TRIPOS>BOND
     1   138   140   ar
     2   138   137   ar
     3   140   141   ar
     4   134   135    2
     5   134   133    1
     6   149   148    2
     7   137   136    1
     8   137   139   ar
     9   136   133    1
    10   141   143   ar
    11   141   139   ar
    12   133   132    1
    13   146   147    1
    14   177   178    1
    15   177   174    1
    16   143   145   ar
    17   139   142   ar
    18   148   147    1
    19   148   154   am
    20   157   156    2
    21   155   156    1
    22   155   154    1
    23   155   158    1
    24   178   179    1
    25   174   173    1
    26   174   175    1
    27   156   161   am
    28   147   150    1
    29   179   173    1
    30   154   160    1
    31   158   159    1
    32   173   163   am
    33   183   182    2
    34   150   151    1
    35   145   144   ar
    36   164   163    2
    37   142   144   ar
    38   163   162    1
    39   161   162    1
    40   180   175   am
    41   180   181    1
    42   175   176    2
    43   160   159    1
    44   162   165    1
    45   184   181    1
    46   184   185    1
    47   118   119    1
    48   120   121    2
    49   120   119    1
    50   188   187    1
    51   186   185    1
    52   186   187    1
    53   182   181    1
    54   182   189   am
    55   151   153   am
    56   151   152    2
    57   119   122    1
    58   122   123    1
    59   189   190    1
    60   165   166    1
    61   195   193    1
    62   190   191    1
    63   190   193    1
    64   167   166   ar
    65   167   169   ar
    66   128   130   ar
    67   128   125   ar
    68   192   191    2
    69   166   168   ar
    70   193   194    1
    71   130   131   ar
    72   123   125   ar
    73   123   124   ar
    74   169   171   ar
    75   125   127   ar
    76   116   114   ar
    77   116   117   ar
    78   168   170   ar
    79   124   126   ar
    80   171   170   ar
    81   171   172    1
    82   131   129   ar
    83   114   113   ar
    84   117   115   ar
    85   127   129   ar
    86   127   126   ar
    87   194   196    1
    88    42    40    1
    89    39    38    2
    90    40    37    1
    91    40    41    1
    92   113   115   ar
    93   113   112    1
    94    37    38    1
    95    37    36    1
    96    38    43   am
    97    61    59   ar
    98    61    60   ar
    99    59    57   ar
   100   112   109    1
   101   111   110    2
   102    43    44    1
   103    67    66    1
   104   109   110    1
   105   109   108    1
   106    60    58   ar
   107    44    45    1
   108    44    47    1
   109    57    56   ar
   110    45    46    2
   111    50    48   am
   112    98    97   ar
   113    58    56   ar
   114    56    55    1
   115    66    63    1
   116    95    94    2
   117    48    47    1
   118    48    49    2
   119    97    96    1
   120    97    99   ar
   121    96    93    1
   122   106   105   ar
   123    62    63    1
   124    62    53   am
   125    63    64    1
   126    94    93    1
   127    94   100   am
   128    55    52    1
   129    52    53    1
   130    52    51    1
   131    93    92    1
   132    53    54    2
   133   103   102    2
   134   101   100    1
   135   101   102    1
   136   101   104    1
   137   105   104    1
   138   105   107   ar
   139     9     7   ar
   140     8     7   ar
   141    64    65    2
   142     7     6    1
   143    27    26    1
   144    26    25    1
   145    86    84    1
   146    18    16   ar
   147    35    34    1
   148    25    24    1
   149     6     5    1
   150    16    17   ar
   151    16    15    1
   152    34    33    1
   153    84    85    1
   154    84    83    2
   155     5     2    1
   156    90    89    2
   157    24    23    1
   158    75    73   am
   159    83    82    1
   160    91    88    1
   161    15    14    1
   162    89    88    1
   163    23    20    1
   164    33    32    1
   165     2     1    1
   166     2     3    1
   167    88    87    1
   168     4     3    2
   169    73    74    2
   170    73    72    1
   171    87    78   am
   172    82    81    1
   173    14    11    1
   174    32    29    1
   175    80    81    1
   176    80    77    1
   177    13    12    2
   178    20    19    1
   179    20    21    1
   180    12    19   am
   181    12    11    1
   182    72    69    1
   183    78    77    1
   184    78    79    2
   185    77    76    1
   186    11    10    1
   187    21    22    2
   188    29    28    1
   189    29    30    1
   190    68    69    1
   191    69    70    1
   192    30    31    2
   193    70    71    2
