@<TRIPOS>MOLECULE
tmp/2ihmH00.pdb
 110 111 0 0 0
SMALL
GASTEIGER

@<TRIPOS>ATOM
      1  N         37.9080   51.3130    2.0390 N.3    38  GLY38      -0.1210
      2  CA        39.1220   50.6090    1.6570 C.3    38  GLY38       0.1956
      3  C         40.1150   50.7210    2.8010 C.2    38  GLY38       0.2611
      4  O         40.8400   49.7790    3.1220 O.2    38  GLY38      -0.2717
      5  N         40.1520   51.8940    3.4230 N.am   39  ARG39      -0.1979
      6  CA        41.0370   52.1020    4.5480 C.3    39  ARG39       0.1597
      7  C         40.5070   51.3090    5.7480 C.2    39  ARG39       0.2287
      8  O         41.2790   50.6900    6.4740 O.2    39  ARG39      -0.2864
      9  CB        41.1320   53.5930    4.8790 C.3    39  ARG39       0.0334
     10  CG        41.8730   54.3780    3.8360 C.3    39  ARG39       0.0492
     11  CD        42.1350   55.8040    4.2730 C.3    39  ARG39       0.2205
     12  NE        43.0870   56.4260    3.3590 N.pl3  39  ARG39      -0.0865
     13  CZ        42.7930   56.8550    2.1300 C.cat  39  ARG39       0.5346
     14  NH1       41.5530   56.7550    1.6530 N.pl3  39  ARG39       0.1354
     15  NH2       43.7570   57.3370    1.3550 N.pl3  39  ARG39       0.1354
     16  N         38.8890   48.6160    5.6670 N.3    41  LEU41      -0.1231
     17  CA        39.1590   47.2100    5.4070 C.3    41  LEU41       0.1693
     18  C         40.5840   46.7820    5.7190 C.2    41  LEU41       0.2593
     19  O         40.7840   45.7140    6.2830 O.2    41  LEU41      -0.2718
     20  CB        38.8360   46.8630    3.9490 C.3    41  LEU41       0.0284
     21  CG        39.0680   45.4070    3.5270 C.3    41  LEU41       0.0019
     22  CD1       38.3300   44.4580    4.4600 C.3    41  LEU41       0.0001
     23  CD2       38.5970   45.2180    2.0830 C.3    41  LEU41       0.0001
     24  N         41.5690   47.5910    5.3360 N.am   42  SER42      -0.1938
     25  CA        42.9730   47.2570    5.5880 C.3    42  SER42       0.2055
     26  C         43.3310   47.2750    7.0810 C.2    42  SER42       0.2643
     27  O         44.0140   46.3660    7.5770 O.2    42  SER42      -0.2714
     28  CB        43.8930   48.2120    4.8320 C.3    42  SER42       0.2130
     29  OG        43.8800   47.9160    3.4550 O.3    42  SER42      -0.2179
     30  N         42.8910   48.3110    7.7890 N.am   43  PHE43      -0.1973
     31  CA        43.1490   48.3930    9.2120 C.3    43  PHE43       0.1639
     32  C         42.5260   47.1470    9.8290 C.2    43  PHE43       0.2290
     33  O         43.1180   46.5170   10.7090 O.2    43  PHE43      -0.2864
     34  CB        42.5230   49.6520    9.8150 C.3    43  PHE43       0.0560
     35  CG        43.3070   50.9060    9.5510 C.ar   43  PHE43      -0.0200
     36  CD1       44.6720   50.9620    9.8370 C.ar   43  PHE43      -0.0042
     37  CD2       42.6860   52.0320    9.0290 C.ar   43  PHE43      -0.0042
     38  CE1       45.4130   52.1270    9.6050 C.ar   43  PHE43      -0.0003
     39  CE2       43.4030   53.1940    8.7960 C.ar   43  PHE43      -0.0003
     40  CZ        44.7760   53.2410    9.0860 C.ar   43  PHE43      -0.0000
     41  N         42.0310   44.1760    8.4070 N.3    45  ARG45      -0.1245
     42  CA        42.8120   42.9820    8.0900 C.3    45  ARG45       0.1563
     43  C         44.0290   42.9100    8.9840 C.2    45  ARG45       0.2260
     44  O         44.3470   41.8530    9.5070 O.2    45  ARG45      -0.2867
     45  CB        43.2460   42.9790    6.6180 C.3    45  ARG45       0.0307
     46  CG        42.1560   42.5250    5.6680 C.3    45  ARG45       0.0489
     47  CD        42.6560   42.4110    4.2430 C.3    45  ARG45       0.2205
     48  NE        41.5650   42.0840    3.3300 N.pl3  45  ARG45      -0.0865
     49  CZ        41.4060   42.6450    2.1350 C.cat  45  ARG45       0.5346
     50  NH1       42.2720   43.5530    1.7070 N.pl3  45  ARG45       0.1354
     51  NH2       40.3630   42.3210    1.3790 N.pl3  45  ARG45       0.1354
     52  N         51.2100   39.3710    6.7670 N.3    67  PRO67      -0.2102
     53  CA        50.5980   40.1080    5.6630 C.3    67  PRO67       0.1504
     54  C         49.7330   41.2700    6.1340 C.2    67  PRO67       0.2576
     55  O         49.2970   41.3100    7.2840 O.2    67  PRO67      -0.2718
     56  CB        49.7640   39.0370    4.9770 C.3    67  PRO67       0.0282
     57  CG        49.2360   38.2670    6.1640 C.3    67  PRO67       0.0208
     58  CD        50.4590   38.1350    7.0580 C.3    67  PRO67       0.0893
     59  N         49.4980   42.2170    5.2360 N.am   68  TYR68      -0.1963
     60  CA        48.6360   43.3510    5.5190 C.3    68  TYR68       0.1771
     61  C         49.1550   44.4120    6.4740 C.2    68  TYR68       0.2620
     62  O         48.3930   45.2370    6.9710 O.2    68  TYR68      -0.2715
     63  CB        47.2740   42.8270    5.9780 C.3    68  TYR68       0.0574
     64  CG        46.6110   41.9760    4.9140 C.ar   68  TYR68      -0.0198
     65  CD1       46.2740   42.5200    3.6750 C.ar   68  TYR68      -0.0009
     66  CD2       46.3410   40.6240    5.1350 C.ar   68  TYR68      -0.0009
     67  CE1       45.6830   41.7430    2.6870 C.ar   68  TYR68       0.0417
     68  CE2       45.7480   39.8330    4.1470 C.ar   68  TYR68       0.0417
     69  CZ        45.4220   40.3990    2.9290 C.ar   68  TYR68       0.1957
     70  OH        44.8310   39.6330    1.9510 O.3    68  TYR68      -0.2866
     71  N         50.4530   44.3970    6.7290 N.am   69  PHE69      -0.1960
     72  CA        51.0350   45.4140    7.5790 C.3    69  PHE69       0.1771
     73  C         51.7790   46.4110    6.7250 C.2    69  PHE69       0.2620
     74  O         52.9850   46.3230    6.5410 O.2    69  PHE69      -0.2715
     75  CB        51.9540   44.7930    8.6230 C.3    69  PHE69       0.0574
     76  CG        51.2480   44.4870    9.8960 C.ar   69  PHE69      -0.0200
     77  CD1       50.8750   45.5170   10.7500 C.ar   69  PHE69      -0.0042
     78  CD2       50.8270   43.1970   10.1780 C.ar   69  PHE69      -0.0042
     79  CE1       50.0890   45.2660   11.8460 C.ar   69  PHE69      -0.0003
     80  CE2       50.0330   42.9410   11.2800 C.ar   69  PHE69      -0.0003
     81  CZ        49.6630   43.9750   12.1110 C.ar   69  PHE69      -0.0000
     82  N         51.0260   47.3550    6.1830 N.am   70  GLY70      -0.1940
     83  CA        51.6180   48.3770    5.3490 C.3    70  GLY70       0.2014
     84  C         52.5010   49.2520    6.1980 C.2    70  GLY70       0.2639
     85  O         52.8410   48.8910    7.3210 O.2    70  GLY70      -0.2714
     86  N         52.8650   50.4150    5.6850 N.am   71  GLU71      -0.1963
     87  CA        53.7270   51.2820    6.4550 C.3    71  GLU71       0.1733
     88  C         52.9560   52.1090    7.4860 C.2    71  GLU71       0.2616
     89  O         53.5250   52.5450    8.4860 O.2    71  GLU71      -0.2715
     90  CB        54.5560   52.1650    5.5060 C.3    71  GLU71       0.0429
     91  CG        53.7950   53.2560    4.7780 C.3    71  GLU71       0.1163
     92  CD        53.5780   54.4860    5.6410 C.2    71  GLU71       0.3649
     93  OE1       54.4990   54.8340    6.4140 O.co2  71  GLU71      -0.2457
     94  OE2       52.4980   55.1130    5.5360 O.co2  71  GLU71      -0.2457
     95  N         51.6610   52.3110    7.2650 N.am   72  HIS72      -0.1959
     96  CA        50.8670   53.0740    8.2260 C.3    72  HIS72       0.1787
     97  C         50.5400   52.2090    9.4640 C.2    72  HIS72       0.2620
     98  O         50.6620   52.6660   10.6000 O.2    72  HIS72      -0.2715
     99  CB        49.5800   53.5970    7.5670 C.3    72  HIS72       0.0785
    100  CG        48.8390   54.6090    8.3910 C.ar   72  HIS72       0.0821
    101  ND1       47.9130   55.4740    7.8490 N.ar   72  HIS72      -0.2267
    102  CD2       48.8660   54.8780    9.7200 C.ar   72  HIS72       0.1154
    103  CE1       47.4050   56.2320    8.8050 C.ar   72  HIS72       0.1986
    104  NE2       47.9660   55.8890    9.9510 N.ar   72  HIS72      -0.2212
    105  N         50.1440   50.9600    9.2500 N.am   73  SER73      -0.1950
    106  CA        49.8320   50.0960   10.3760 C.3    73  SER73       0.1924
    107  C         51.1020   49.7870   11.1690 C.2    73  SER73       0.2314
    108  O         51.0780   49.7330   12.3980 O.2    73  SER73      -0.2863
    109  CB        49.1900   48.8050    9.8870 C.3    73  SER73       0.2116
    110  OG        47.9680   49.0740    9.2260 O.3    73  SER73      -0.2180
@<TRIPOS>BOND
     1    15    13    1
     2    51    49    1
     3    14    13    1
     4     2     1    1
     5     2     3    1
     6    50    49    1
     7    70    69    1
     8    23    21    1
     9    13    12    2
    10    49    48    2
    11    67    69   ar
    12    67    65   ar
    13     3     4    2
    14     3     5   am
    15    69    68   ar
    16    48    47    1
    17    12    11    1
    18     5     6    1
    19    29    28    1
    20    21    20    1
    21    21    22    1
    22    65    64   ar
    23    10    11    1
    24    10     9    1
    25    20    17    1
    26    68    66   ar
    27    47    46    1
    28     6     9    1
    29     6     7    1
    30    91    90    1
    31    91    92    1
    32    28    25    1
    33    64    66   ar
    34    64    63    1
    35    56    53    1
    36    56    57    1
    37    59    60    1
    38    59    54   am
    39    24    25    1
    40    24    18   am
    41    83    82    1
    42    83    84    1
    43    17    16    1
    44    17    18    1
    45    90    87    1
    46    60    63    1
    47    60    61    1
    48    94    92   ar
    49    25    26    1
    50    92    93   ar
    51    53    54    1
    52    53    52    1
    53    46    45    1
    54    86    84   am
    55    86    87    1
    56    18    19    2
    57     7     8    2
    58    54    55    2
    59    57    58    1
    60    82    73   am
    61    84    85    2
    62    87    88    1
    63    61    71   am
    64    61    62    2
    65    74    73    2
    66    45    42    1
    67    73    72    1
    68    71    72    1
    69    52    58    1
    70    26    27    2
    71    26    30   am
    72    95    88   am
    73    95    96    1
    74    88    89    2
    75    99    96    1
    76    99   100    1
    77    72    75    1
    78    30    31    1
    79   101   100   ar
    80   101   103   ar
    81    42    41    1
    82    42    43    1
    83    96    97    1
    84   100   102   ar
    85    75    76    1
    86    39    37   ar
    87    39    40   ar
    88   103   104   ar
    89    43    44    2
    90    37    35   ar
    91    40    38   ar
    92    31    34    1
    93    31    32    1
    94   110   109    1
    95   105    97   am
    96   105   106    1
    97    97    98    2
    98    35    34    1
    99    35    36   ar
   100    38    36   ar
   101   102   104   ar
   102    32    33    2
   103   109   106    1
   104    76    78   ar
   105    76    77   ar
   106    78    80   ar
   107   106   107    1
   108    77    79   ar
   109   107   108    2
   110    80    81   ar
   111    79    81   ar
