@<TRIPOS>MOLECULE
tmp/2ihoA01.pdb
 105 103 0 0 0
SMALL
GASTEIGER

@<TRIPOS>ATOM
      1  N         43.3080   24.7490   18.9440 N.3    27  ASP27      -0.1239
      2  CA        44.6060   24.6710   19.6230 C.3    27  ASP27       0.1674
      3  C         45.2640   23.3240   19.3160 C.2    27  ASP27       0.2266
      4  O         44.6340   22.2600   19.4010 O.2    27  ASP27      -0.2867
      5  CB        44.4510   24.8590   21.1470 C.3    27  ASP27       0.1410
      6  CG        43.9130   26.2110   21.5100 C.2    27  ASP27       0.3668
      7  OD1       43.9380   27.1400   20.6450 O.co2  27  ASP27      -0.2456
      8  OD2       43.4360   26.3650   22.6580 O.co2  27  ASP27      -0.2456
      9  N         52.6510   28.7810   17.2540 N.3    71  ASP71      -0.1225
     10  CA        52.9670   28.4830   18.6260 C.3    71  ASP71       0.1805
     11  C         53.9630   27.3270   18.7400 C.2    71  ASP71       0.2598
     12  O         53.7370   26.2390   18.1960 O.2    71  ASP71      -0.2718
     13  CB        51.6650   28.2130   19.3510 C.3    71  ASP71       0.1424
     14  CG        51.8600   27.6300   20.7060 C.2    71  ASP71       0.3668
     15  OD1       52.1240   26.4000   20.7700 O.co2  71  ASP71      -0.2456
     16  OD2       51.6940   28.3720   21.6930 O.co2  71  ASP71      -0.2456
     17  N         55.0900   27.5830   19.3990 N.am   72  LEU72      -0.1966
     18  CA        56.0520   26.5220   19.6700 C.3    72  LEU72       0.1728
     19  C         55.6070   25.7910   20.9230 C.2    72  LEU72       0.2616
     20  O         55.5050   26.3870   22.0000 O.2    72  LEU72      -0.2715
     21  CB        57.4650   27.0700   19.8450 C.3    72  LEU72       0.0311
     22  CG        58.5830   26.0430   19.9770 C.3    72  LEU72       0.0022
     23  CD1       58.8360   25.2690   18.6950 C.3    72  LEU72       0.0001
     24  CD2       59.8260   26.7910   20.3770 C.3    72  LEU72       0.0001
     25  N         55.3480   24.4980   20.7630 N.am   73  TYR73      -0.1960
     26  CA        54.6310   23.7120   21.7550 C.3    73  TYR73       0.1771
     27  C         55.3190   23.5750   23.1160 C.2    73  TYR73       0.2619
     28  O         56.3710   22.9630   23.2330 O.2    73  TYR73      -0.2715
     29  CB        54.3020   22.3450   21.1710 C.3    73  TYR73       0.0574
     30  CG        53.4490   21.5030   22.0580 C.ar   73  TYR73      -0.0198
     31  CD1       52.1780   21.9170   22.4220 C.ar   73  TYR73      -0.0009
     32  CD2       53.9160   20.2850   22.5400 C.ar   73  TYR73      -0.0009
     33  CE1       51.3890   21.1490   23.2410 C.ar   73  TYR73       0.0417
     34  CE2       53.1310   19.5090   23.3490 C.ar   73  TYR73       0.0417
     35  CZ        51.8640   19.9450   23.6870 C.ar   73  TYR73       0.1957
     36  OH        51.0790   19.1680   24.4830 O.3    73  TYR73      -0.2866
     37  N         54.6980   24.1510   24.1400 N.am   74  ASN74      -0.1972
     38  CA        55.2790   24.2090   25.4950 C.3    74  ASN74       0.1688
     39  C         56.6760   24.8370   25.5720 C.2    74  ASN74       0.2292
     40  O         57.3950   24.5900   26.5190 O.2    74  ASN74      -0.2864
     41  CB        55.3040   22.8170   26.1500 C.3    74  ASN74       0.1181
     42  CG        53.9130   22.2840   26.4380 C.2    74  ASN74       0.2629
     43  OD1       53.6570   21.1120   26.2390 O.2    74  ASN74      -0.2716
     44  ND2       53.0130   23.1390   26.9060 N.am   74  ASN74      -0.0877
     45  N         47.5570   28.1190   17.7000 N.3    86  TRP86      -0.1227
     46  CA        47.0930   28.1470   19.0670 C.3    86  TRP86       0.1737
     47  C         46.4590   29.4960   19.3330 C.2    86  TRP86       0.2595
     48  O         46.9700   30.5120   18.8480 O.2    86  TRP86      -0.2718
     49  CB        48.2750   27.9650   20.0250 C.3    86  TRP86       0.0564
     50  CG        47.8500   27.3190   21.2950 C.ar   86  TRP86       0.0003
     51  CD1       47.1650   27.9040   22.3400 C.ar   86  TRP86       0.0946
     52  CD2       48.0620   25.9540   21.6610 C.ar   86  TRP86       0.0152
     53  NE1       46.9330   26.9710   23.3310 N.ar   86  TRP86      -0.2442
     54  CE2       47.4660   25.7630   22.9340 C.ar   86  TRP86       0.0810
     55  CE3       48.6470   24.8670   21.0200 C.ar   86  TRP86       0.0012
     56  CZ2       47.4560   24.5250   23.5800 C.ar   86  TRP86       0.0191
     57  CZ3       48.6350   23.6200   21.6770 C.ar   86  TRP86       0.0001
     58  CH2       48.0440   23.4760   22.9480 C.ar   86  TRP86       0.0015
     59  N         45.3730   29.5240   20.1070 N.am   87  GLN87      -0.1965
     60  CA        44.7610   30.7940   20.4550 C.3    87  GLN87       0.1733
     61  C         45.7820   31.7280   21.1300 C.2    87  GLN87       0.2616
     62  O         46.7080   31.2790   21.8240 O.2    87  GLN87      -0.2715
     63  CB        43.4880   30.6330   21.3260 C.3    87  GLN87       0.0408
     64  CG        43.7690   30.0200   22.6880 C.3    87  GLN87       0.0908
     65  CD        42.5060   29.7370   23.5030 C.2    87  GLN87       0.2608
     66  OE1       41.9450   30.6380   24.1630 O.2    87  GLN87      -0.2717
     67  NE2       42.0780   28.4740   23.4880 N.am   87  GLN87      -0.0878
     68  N         45.5820   33.0210   20.9320 N.am   88  GLY88      -0.1955
     69  CA        46.4760   34.0120   21.4640 C.3    88  GLY88       0.1869
     70  C         46.0000   35.4240   21.2410 C.2    88  GLY88       0.2309
     71  O         44.8160   35.6830   20.9320 O.2    88  GLY88      -0.2863
     72  N         50.9490   39.5050   22.8300 N.3    92  THR92      -0.1218
     73  CA        51.0470   38.5670   23.9370 C.3    92  THR92       0.1862
     74  C         52.4550   38.5660   24.5290 C.2    92  THR92       0.2287
     75  O         53.4180   38.9300   23.8540 O.2    92  THR92      -0.2866
     76  CB        50.6520   37.1300   23.4720 C.3    92  THR92       0.1770
     77  OG1       50.6600   36.2260   24.5910 O.3    92  THR92      -0.2211
     78  CG2       51.5930   36.6100   22.3780 C.3    92  THR92       0.0375
     79  N         53.3810   35.6820   25.9540 N.3    94  ASN94      -0.1240
     80  CA        53.6730   34.2510   25.8110 C.3    94  ASN94       0.1653
     81  C         54.7700   33.9570   24.7670 C.2    94  ASN94       0.2266
     82  O         54.5320   34.0450   23.5630 O.2    94  ASN94      -0.2867
     83  CB        52.3770   33.5000   25.4920 C.3    94  ASN94       0.1155
     84  CG        52.5520   32.0230   25.4230 C.2    94  ASN94       0.2627
     85  OD1       53.6490   31.5210   25.5310 O.2    94  ASN94      -0.2716
     86  ND2       51.4460   31.3000   25.2360 N.am   94  ASN94      -0.0877
     87  N         55.8950   31.3640   23.5960 N.3    96  HIS96      -0.1226
     88  CA        55.5990   30.2570   22.6820 C.3    96  HIS96       0.1752
     89  C         55.1000   30.8290   21.3520 C.2    96  HIS96       0.2595
     90  O         55.1570   30.1870   20.3160 O.2    96  HIS96      -0.2718
     91  CB        54.5400   29.3100   23.2540 C.3    96  HIS96       0.0759
     92  CG        54.8880   28.7180   24.5840 C.ar   96  HIS96       0.0818
     93  ND1       53.9640   28.0490   25.3580 N.ar   96  HIS96      -0.2268
     94  CD2       56.0480   28.6890   25.2810 C.ar   96  HIS96       0.1154
     95  CE1       54.5330   27.6340   26.4720 C.ar   96  HIS96       0.1986
     96  NE2       55.8000   28.0010   26.4470 N.ar   96  HIS96      -0.2212
     97  N         54.6280   32.0660   21.4200 N.am   97  GLN97      -0.1979
     98  CA        53.9720   32.7290   20.3050 C.3    97  GLN97       0.1601
     99  C         54.7640   33.9400   19.8170 C.2    97  GLN97       0.2287
    100  O         54.3200   34.6520   18.9250 O.2    97  GLN97      -0.2864
    101  CB        52.5200   33.0770   20.6970 C.3    97  GLN97       0.0394
    102  CG        51.6340   31.8370   20.7040 C.3    97  GLN97       0.0908
    103  CD        50.2330   32.0230   21.2910 C.2    97  GLN97       0.2608
    104  OE1       49.5520   31.0340   21.6130 O.2    97  GLN97      -0.2717
    105  NE2       49.8080   33.2510   21.4440 N.am   97  GLN97      -0.0878
@<TRIPOS>BOND
     1     9    10    1
     2    45    46    1
     3    12    11    2
     4    10    11    1
     5    10    13    1
     6    23    22    1
     7    11    17   am
     8    48    47    2
     9   100    99    2
    10     1     2    1
    11    46    47    1
    12    46    49    1
    13     3     4    2
    14     3     2    1
    15    47    59   am
    16    13    14    1
    17    17    18    1
    18     2     5    1
    19    18    21    1
    20    18    19    1
    21    99    98    1
    22    21    22    1
    23    22    24    1
    24    49    50    1
    25    59    60    1
    26    98   101    1
    27    98    97    1
    28    90    89    2
    29    60    61    1
    30    60    63    1
    31     7     6   ar
    32   101   102    1
    33   102   103    1
    34    14    15   ar
    35    14    16   ar
    36    25    19   am
    37    25    26    1
    38    19    20    2
    39    71    70    2
    40    68    61   am
    41    68    69    1
    42    55    52   ar
    43    55    57   ar
    44    61    62    2
    45     5     6    1
    46    29    26    1
    47    29    30    1
    48    70    69    1
    49   103   105   am
    50   103   104    2
    51    50    52   ar
    52    50    51   ar
    53    63    64    1
    54    89    97   am
    55    89    88    1
    56     6     8   ar
    57    52    54   ar
    58    57    58   ar
    59    26    27    1
    60    30    31   ar
    61    30    32   ar
    62    51    53   ar
    63    78    76    1
    64    31    33   ar
    65    32    34   ar
    66    88    91    1
    67    88    87    1
    68    64    65    1
    69    72    73    1
    70    54    53   ar
    71    54    56   ar
    72    58    56   ar
    73    27    28    2
    74    27    37   am
    75    33    35   ar
    76    91    92    1
    77    34    35   ar
    78    76    73    1
    79    76    77    1
    80    67    65   am
    81    65    66    2
    82    82    81    2
    83    35    36    1
    84    75    74    2
    85    73    74    1
    86    37    38    1
    87    92    94   ar
    88    92    93   ar
    89    81    80    1
    90    86    84   am
    91    94    96   ar
    92    93    95   ar
    93    84    83    1
    94    84    85    2
    95    83    80    1
    96    38    39    1
    97    38    41    1
    98    39    40    2
    99    80    79    1
   100    41    42    1
   101    43    42    2
   102    42    44   am
   103    96    95   ar
