@<TRIPOS>MOLECULE
tmp/2ihoA00.pdb
 130 131 0 0 0
SMALL
GASTEIGER

@<TRIPOS>ATOM
      1  N         51.9610   26.4460    6.2050 N.3    19  ASP19      -0.1239
      2  CA        50.5530   26.1350    6.0510 C.3    19  ASP19       0.1674
      3  C         49.9870   25.7760    7.4060 C.2    19  ASP19       0.2266
      4  O         50.6320   25.0720    8.1610 O.2    19  ASP19      -0.2867
      5  CB        50.4040   24.9630    5.0650 C.3    19  ASP19       0.1410
      6  CG        48.9690   24.7150    4.6630 C.2    19  ASP19       0.3668
      7  OD1       48.1720   24.1900    5.4890 O.co2  19  ASP19      -0.2456
      8  OD2       48.6380   25.0600    3.5060 O.co2  19  ASP19      -0.2456
      9  N         47.2870   23.5530    8.9030 N.3    21  LYS21      -0.1231
     10  CA        46.5020   22.4260    8.4050 C.3    21  LYS21       0.1693
     11  C         44.9950   22.6710    8.4480 C.2    21  LYS21       0.2592
     12  O         44.3950   22.7790    9.5350 O.2    21  LYS21      -0.2718
     13  CB        46.8600   21.1370    9.1500 C.3    21  LYS21       0.0285
     14  CG        46.2650   19.8790    8.5720 C.3    21  LYS21       0.0035
     15  CD        46.8880   19.5530    7.2340 C.3    21  LYS21       0.0206
     16  CE        46.6570   18.0690    6.8420 C.3    21  LYS21       0.1093
     17  NZ        45.3230   17.8110    6.1800 N.3    21  LYS21      -0.1314
     18  N         44.4090   22.7630    7.2510 N.am   22  ASP22      -0.1974
     19  CA        42.9740   22.9040    7.0690 C.3    22  ASP22       0.1709
     20  C         42.4210   24.1630    7.6710 C.2    22  ASP22       0.2293
     21  O         41.2030   24.2820    7.8600 O.2    22  ASP22      -0.2864
     22  CB        42.2150   21.7290    7.6500 C.3    22  ASP22       0.1436
     23  CG        42.4190   20.4540    6.8780 C.2    22  ASP22       0.3671
     24  OD1       42.8090   20.4720    5.6970 O.co2  22  ASP22      -0.2456
     25  OD2       42.1670   19.3990    7.4770 O.co2  22  ASP22      -0.2456
     26  N         53.5710   23.1490    2.7070 N.3    34  TRP34      -0.1227
     27  CA        52.5110   22.8310    1.7270 C.3    34  TRP34       0.1737
     28  C         52.7110   23.6770    0.4640 C.2    34  TRP34       0.2595
     29  O         53.2270   24.7990    0.5280 O.2    34  TRP34      -0.2718
     30  CB        51.1220   23.0560    2.3230 C.3    34  TRP34       0.0564
     31  CG        50.0260   22.2170    1.7080 C.ar   34  TRP34       0.0003
     32  CD1       49.4450   22.3960    0.4780 C.ar   34  TRP34       0.0946
     33  CD2       49.3680   21.0900    2.2940 C.ar   34  TRP34       0.0152
     34  NE1       48.4830   21.4480    0.2600 N.ar   34  TRP34      -0.2442
     35  CE2       48.4120   20.6290    1.3570 C.ar   34  TRP34       0.0810
     36  CE3       49.4930   20.4160    3.5150 C.ar   34  TRP34       0.0012
     37  CZ2       47.5940   19.5060    1.6020 C.ar   34  TRP34       0.0191
     38  CZ3       48.6630   19.3240    3.7720 C.ar   34  TRP34       0.0001
     39  CH2       47.7470   18.8730    2.8120 C.ar   34  TRP34       0.0015
     40  N         52.3520   23.1240   -0.6880 N.am   35  GLN35      -0.1965
     41  CA        52.5260   23.8420   -1.9720 C.3    35  GLN35       0.1733
     42  C         51.5720   25.0210   -2.0250 C.2    35  GLN35       0.2616
     43  O         50.6410   25.1150   -1.2330 O.2    35  GLN35      -0.2715
     44  CB        52.2720   22.9260   -3.1690 C.3    35  GLN35       0.0408
     45  CG        51.0090   22.1360   -2.9610 C.3    35  GLN35       0.0908
     46  CD        50.4580   21.4720   -4.1980 C.2    35  GLN35       0.2608
     47  OE1       49.8780   20.3900   -4.0940 O.2    35  GLN35      -0.2717
     48  NE2       50.5910   22.1200   -5.3570 N.am   35  GLN35      -0.0878
     49  N         51.8070   25.9200   -2.9570 N.am   36  PHE36      -0.1960
     50  CA        50.9780   27.1050   -3.0740 C.3    36  PHE36       0.1771
     51  C         50.8310   27.4530   -4.5380 C.2    36  PHE36       0.2620
     52  O         51.6390   27.0370   -5.3480 O.2    36  PHE36      -0.2715
     53  CB        51.5770   28.2920   -2.2980 C.3    36  PHE36       0.0574
     54  CG        53.0180   28.5610   -2.6070 C.ar   36  PHE36      -0.0200
     55  CD1       53.3680   29.5500   -3.5240 C.ar   36  PHE36      -0.0042
     56  CD2       54.0390   27.8380   -1.9650 C.ar   36  PHE36      -0.0042
     57  CE1       54.6960   29.8090   -3.8190 C.ar   36  PHE36      -0.0003
     58  CE2       55.3510   28.0870   -2.2510 C.ar   36  PHE36      -0.0003
     59  CZ        55.7020   29.0780   -3.1700 C.ar   36  PHE36      -0.0000
     60  N         49.7780   28.1970   -4.8530 N.am   37  THR37      -0.1951
     61  CA        49.5910   28.7900   -6.1640 C.3    37  THR37       0.1897
     62  C         49.8810   30.2820   -6.0270 C.2    37  THR37       0.2313
     63  O         49.2420   30.9670   -5.2260 O.2    37  THR37      -0.2863
     64  CB        48.1660   28.5800   -6.6640 C.3    37  THR37       0.1794
     65  OG1       47.8230   27.1920   -6.5060 O.3    37  THR37      -0.2208
     66  CG2       48.0470   28.9830   -8.1470 C.3    37  THR37       0.0378
     67  N         47.4320   33.9230   -6.1180 N.3    40  THR40      -0.1203
     68  CA        46.0940   33.5550   -5.6840 C.3    40  THR40       0.1994
     69  C         46.0860   33.7730   -4.1830 C.2    40  THR40       0.2618
     70  O         47.1490   33.9730   -3.5850 O.2    40  THR40      -0.2717
     71  CB        45.7340   32.0900   -6.0050 C.3    40  THR40       0.1784
     72  OG1       46.5500   31.2010   -5.2260 O.3    40  THR40      -0.2211
     73  CG2       45.9230   31.7930   -7.4670 C.3    40  THR40       0.0376
     74  N         44.9010   33.7620   -3.5780 N.am   41  ILE41      -0.1965
     75  CA        44.8310   33.6740   -2.1270 C.3    41  ILE41       0.1727
     76  C         45.0860   32.2250   -1.7600 C.2    41  ILE41       0.2616
     77  O         44.3780   31.3230   -2.2200 O.2    41  ILE41      -0.2715
     78  CB        43.4750   34.1390   -1.5310 C.3    41  ILE41       0.0290
     79  CG1       43.2730   35.6560   -1.6960 C.3    41  ILE41       0.0022
     80  CG2       43.3450   33.6930   -0.0760 C.3    41  ILE41       0.0023
     81  CD1       44.2150   36.5400   -0.8970 C.3    41  ILE41       0.0001
     82  N         46.1260   32.0150   -0.9580 N.am   42  ASN42      -0.1958
     83  CA        46.4460   30.7130   -0.3990 C.3    42  ASN42       0.1819
     84  C         45.8560   30.7020    1.0150 C.2    42  ASN42       0.2621
     85  O         46.4900   31.1710    1.9670 O.2    42  ASN42      -0.2715
     86  CB        47.9660   30.4890   -0.4170 C.3    42  ASN42       0.1195
     87  CG        48.5150   30.2920   -1.8160 C.2    42  ASN42       0.2630
     88  OD1       49.1180   31.1900   -2.3850 O.2    42  ASN42      -0.2716
     89  ND2       48.3040   29.1170   -2.3790 N.am   42  ASN42      -0.0877
     90  N         44.6400   30.1640    1.1310 N.am   43  TRP43      -0.1960
     91  CA        43.7780   30.3440    2.3010 C.3    43  TRP43       0.1771
     92  C         44.3490   30.0750    3.6770 C.2    43  TRP43       0.2620
     93  O         44.0160   30.7840    4.6230 O.2    43  TRP43      -0.2715
     94  CB        42.4670   29.5800    2.1410 C.3    43  TRP43       0.0590
     95  CG        41.6220   30.2140    1.1400 C.ar   43  TRP43       0.0006
     96  CD1       41.5150   29.8690   -0.1670 C.ar   43  TRP43       0.0946
     97  CD2       40.7790   31.3490    1.3290 C.ar   43  TRP43       0.0152
     98  NE1       40.6500   30.7160   -0.8100 N.ar   43  TRP43      -0.2442
     99  CE2       40.1730   31.6300    0.0880 C.ar   43  TRP43       0.0810
    100  CE3       40.4660   32.1540    2.4270 C.ar   43  TRP43       0.0012
    101  CZ2       39.3010   32.6850   -0.0910 C.ar   43  TRP43       0.0191
    102  CZ3       39.5690   33.2030    2.2330 C.ar   43  TRP43       0.0001
    103  CH2       39.0170   33.4600    0.9920 C.ar   43  TRP43       0.0015
    104  N         45.1880   29.0500    3.7870 N.am   44  HIS44      -0.1959
    105  CA        45.6990   28.6000    5.0780 C.3    44  HIS44       0.1787
    106  C         47.1470   29.0130    5.2950 C.2    44  HIS44       0.2620
    107  O         47.7540   28.6500    6.3040 O.2    44  HIS44      -0.2715
    108  CB        45.5430   27.0840    5.1780 C.3    44  HIS44       0.0785
    109  CG        44.1510   26.6240    4.9300 C.ar   44  HIS44       0.0821
    110  ND1       43.8600   25.4050    4.3670 N.ar   44  HIS44      -0.2267
    111  CD2       42.9610   27.2360    5.1490 C.ar   44  HIS44       0.1154
    112  CE1       42.5490   25.2730    4.2760 C.ar   44  HIS44       0.1986
    113  NE2       41.9790   26.3700    4.7420 N.ar   44  HIS44      -0.2212
    114  N         47.6690   29.8090    4.3560 N.am   45  GLN45      -0.1977
    115  CA        49.0610   30.1630    4.3360 C.3    45  GLN45       0.1601
    116  C         49.3850   31.6430    4.4900 C.2    45  GLN45       0.2287
    117  O         50.4970   32.0220    4.1680 O.2    45  GLN45      -0.2864
    118  CB        49.6860   29.6530    3.0380 C.3    45  GLN45       0.0394
    119  CG        49.3570   28.2330    2.7270 C.3    45  GLN45       0.0908
    120  CD        49.9310   27.7880    1.4480 C.2    45  GLN45       0.2608
    121  OE1       50.4750   28.5950    0.6910 O.2    45  GLN45      -0.2717
    122  NE2       49.8460   26.4780    1.1800 N.am   45  GLN45      -0.0878
    123  N         53.4760   17.7280    0.7040 N.3   130  ASP130     -0.1239
    124  CA        52.3730   18.4280    1.3530 C.3   130  ASP130      0.1674
    125  C         52.1390   17.8180    2.7200 C.2   130  ASP130      0.2266
    126  O         52.0220   16.6020    2.8490 O.2   130  ASP130     -0.2867
    127  CB        51.0890   18.3160    0.5400 C.3   130  ASP130      0.1410
    128  CG        51.0480   19.2650   -0.6430 C.2   130  ASP130      0.3668
    129  OD1       51.7640   20.3010   -0.6460 O.co2 130  ASP130     -0.2456
    130  OD2       50.2610   18.9670   -1.5670 O.co2 130  ASP130     -0.2456
@<TRIPOS>BOND
     1    66    64    1
     2    73    71    1
     3    64    65    1
     4    64    61    1
     5    61    62    1
     6    61    60    1
     7    67    68    1
     8    62    63    2
     9    71    68    1
    10    71    72    1
    11    68    69    1
    12    48    46   am
    13    52    51    2
    14    60    51   am
    15    51    50    1
    16    46    47    2
    17    46    45    1
    18    69    70    2
    19    69    74   am
    20    57    55   ar
    21    57    59   ar
    22    74    75    1
    23    55    54   ar
    24    59    58   ar
    25    44    45    1
    26    44    41    1
    27    50    49    1
    28    50    53    1
    29    49    42   am
    30    54    53    1
    31    54    56   ar
    32    88    87    2
    33    89    87   am
    34    58    56   ar
    35    77    76    2
    36    75    76    1
    37    75    78    1
    38    42    41    1
    39    42    43    2
    40    41    40    1
    41    87    86    1
    42    76    82   am
    43    79    78    1
    44    79    81    1
    45   130   128   ar
    46    78    80    1
    47    82    83    1
    48    98    96   ar
    49    98    99   ar
    50    40    28   am
    51   129   128   ar
    52   128   127    1
    53    86    83    1
    54    83    84    1
    55    96    95   ar
    56   101    99   ar
    57   101   103   ar
    58    99    97   ar
    59    34    32   ar
    60    34    35   ar
    61    28    29    2
    62    28    27    1
    63    32    31   ar
    64   127   124    1
    65   121   120    2
    66   123   124    1
    67   103   102   ar
    68    84    90   am
    69    84    85    2
    70    90    91    1
    71    95    97   ar
    72    95    94    1
    73   122   120   am
    74    97   100   ar
    75   124   125    1
    76    35    37   ar
    77    35    33   ar
    78   120   119    1
    79    37    39   ar
    80    31    33   ar
    81    31    30    1
    82    27    30    1
    83    27    26    1
    84    94    91    1
    85   102   100   ar
    86    33    36   ar
    87    91    92    1
    88   125   126    2
    89   119   118    1
    90    39    38   ar
    91   118   115    1
    92     8     6   ar
    93    36    38   ar
    94    92   104   am
    95    92    93    2
    96   104   105    1
    97   117   116    2
    98   112   110   ar
    99   112   113   ar
   100   115   114    1
   101   115   116    1
   102   114   106   am
   103   110   109   ar
   104     6     5    1
   105     6     7   ar
   106   113   111   ar
   107   109   111   ar
   108   109   108    1
   109     5     2    1
   110   105   108    1
   111   105   106    1
   112   106   107    2
   113    24    23   ar
   114     2     1    1
   115     2     3    1
   116    17    16    1
   117    16    15    1
   118    23    25   ar
   119    23    22    1
   120    19    18    1
   121    19    22    1
   122    19    20    1
   123    15    14    1
   124    18    11   am
   125     3     4    2
   126    20    21    2
   127    10    11    1
   128    10     9    1
   129    10    13    1
   130    11    12    2
   131    14    13    1
