@<TRIPOS>MOLECULE
tmp/2ihpA00.pdb
 94 90 0 0 0
SMALL
GASTEIGER

@<TRIPOS>ATOM
      1  N         18.2420    0.8480    9.6930 N.3    58  GLU58      -0.1231
      2  CA        17.5110   -0.2490    9.0820 C.3    58  GLU58       0.1699
      3  C         17.0420    0.1400    7.6920 C.2    58  GLU58       0.2592
      4  O         16.7060    1.3070    7.4550 O.2    58  GLU58      -0.2718
      5  CB        16.2480   -0.5680    9.8900 C.3    58  GLU58       0.0402
      6  CG        16.4460   -1.0820   11.2560 C.3    58  GLU58       0.1161
      7  CD        15.1220   -1.3750   11.9200 C.2    58  GLU58       0.3649
      8  OE1       14.4210   -0.3890   12.2440 O.co2  58  GLU58      -0.2457
      9  OE2       14.7920   -2.5740   12.1230 O.co2  58  GLU58      -0.2457
     10  N         17.0140   -0.8390    6.7900 N.am   59  ILE59      -0.1966
     11  CA        16.2600   -0.6940    5.5410 C.3    59  ILE59       0.1727
     12  C         14.8160   -0.3330    5.8890 C.2    59  ILE59       0.2617
     13  O         14.1710   -1.0260    6.6950 O.2    59  ILE59      -0.2715
     14  CB        16.2970   -2.0180    4.7290 C.3    59  ILE59       0.0290
     15  CG1       17.7300   -2.3140    4.2520 C.3    59  ILE59       0.0022
     16  CG2       15.3360   -1.9370    3.5370 C.3    59  ILE59       0.0023
     17  CD1       17.9370   -3.7110    3.6660 C.3    59  ILE59       0.0001
     18  N         14.3130    0.7700    5.3160 N.am   60  THR60      -0.1937
     19  CA        12.8980    1.1080    5.5140 C.3    60  THR60       0.2028
     20  C         12.0430    0.5090    4.3900 C.2    60  THR60       0.2642
     21  O         12.2690    0.7550    3.1940 O.2    60  THR60      -0.2714
     22  CB        12.6390    2.6080    5.6890 C.3    60  THR60       0.1808
     23  OG1       11.2280    2.7980    5.8100 O.3    60  THR60      -0.2208
     24  CG2       13.1430    3.4120    4.5450 C.3    60  THR60       0.0379
     25  N         11.0720   -0.2990    4.7730 N.am   61  LYS61      -0.1963
     26  CA        10.1930   -0.9260    3.7870 C.3    61  LYS61       0.1728
     27  C          9.2900    0.0690    3.0860 C.2    61  LYS61       0.2616
     28  O          8.8790   -0.1840    1.9540 O.2    61  LYS61      -0.2715
     29  CB         9.3280   -1.9930    4.4560 C.3    61  LYS61       0.0311
     30  CG        10.1360   -3.1740    4.9780 C.3    61  LYS61       0.0038
     31  CD         9.2940   -4.3670    5.3890 C.3    61  LYS61       0.0206
     32  CE         8.3370   -4.0130    6.4950 C.3    61  LYS61       0.1093
     33  NZ         9.0880   -3.6660    7.7230 N.3    61  LYS61      -0.1314
     34  N          8.9910    1.1830    3.7390 N.am   62  GLU62      -0.1977
     35  CA         7.9100    2.0650    3.2800 C.3    62  GLU62       0.1602
     36  C          8.3360    3.2260    2.3840 C.2    62  GLU62       0.2287
     37  O          7.4670    3.9330    1.8630 O.2    62  GLU62      -0.2864
     38  CB         7.1290    2.6130    4.4670 C.3    62  GLU62       0.0415
     39  CG         7.8930    3.6350    5.2530 C.3    62  GLU62       0.1163
     40  CD         7.1740    4.1460    6.4690 C.2    62  GLU62       0.3649
     41  OE1        5.9970    3.7680    6.7080 O.co2  62  GLU62      -0.2457
     42  OE2        7.8070    4.9650    7.1720 O.co2  62  GLU62      -0.2457
     43  N         17.7370    4.0010    6.9550 N.3    69  ILE69      -0.1231
     44  CA        17.5320    5.2150    7.7340 C.3    69  ILE69       0.1692
     45  C         17.6140    4.8630    9.2090 C.2    69  ILE69       0.2592
     46  O         17.5700    3.6830    9.5610 O.2    69  ILE69      -0.2718
     47  CB        16.1760    5.8940    7.4290 C.3    69  ILE69       0.0266
     48  CG1       15.0110    5.1130    8.0210 C.3    69  ILE69       0.0019
     49  CG2       16.0170    6.0700    5.9220 C.3    69  ILE69       0.0020
     50  CD1       13.6840    5.8690    7.9190 C.3    69  ILE69       0.0001
     51  N         17.6910    5.8770   10.0730 N.am   70  GLN70      -0.1966
     52  CA        17.6820    5.5990   11.5030 C.3    70  GLN70       0.1733
     53  C         16.2530    5.4260   12.0210 C.2    70  GLN70       0.2616
     54  O         15.3630    6.2080   11.6930 O.2    70  GLN70      -0.2715
     55  CB        18.4020    6.6900   12.2800 C.3    70  GLN70       0.0408
     56  CG        18.6220    6.3120   13.7370 C.3    70  GLN70       0.0908
     57  CD        19.7290    7.1060   14.3880 C.2    70  GLN70       0.2608
     58  OE1       20.3900    7.9120   13.7420 O.2    70  GLN70      -0.2717
     59  NE2       19.9280    6.8790   15.6960 N.am   70  GLN70      -0.0878
     60  N         16.0520    4.3980   12.8230 N.am   71  ASP71      -0.1957
     61  CA        14.7750    4.1170   13.4840 C.3    71  ASP71       0.1840
     62  C         14.4190    5.2940   14.3800 C.2    71  ASP71       0.2622
     63  O         15.2900    5.9250   14.9710 O.2    71  ASP71      -0.2715
     64  CB        14.9180    2.8560   14.3230 C.3    71  ASP71       0.1450
     65  CG        13.6000    2.2380   14.7110 C.2    71  ASP71       0.3671
     66  OD1       12.7210    2.1170   13.8420 O.co2  71  ASP71      -0.2456
     67  OD2       13.4580    1.8450   15.8780 O.co2  71  ASP71      -0.2456
     68  N         13.1230    5.5880   14.4620 N.am   72  THR72      -0.1951
     69  CA        12.6400    6.6590   15.3170 C.3    72  THR72       0.1897
     70  C         11.4650    6.1590   16.1190 C.2    72  THR72       0.2313
     71  O         10.7570    5.2550   15.6880 O.2    72  THR72      -0.2863
     72  CB        12.1590    7.8590   14.5150 C.3    72  THR72       0.1794
     73  OG1       11.0990    7.4510   13.6330 O.3    72  THR72      -0.2208
     74  CG2       13.2840    8.4590   13.7430 C.3    72  THR72       0.0378
     75  N          7.8480   -9.7440    9.5080 N.3   109  ASN109     -0.1225
     76  CA         7.5340   -8.6960    8.5280 C.3   109  ASN109      0.1785
     77  C          8.7390   -7.9180    8.0190 C.2   109  ASN109      0.2597
     78  O          8.5870   -6.7990    7.5520 O.2   109  ASN109     -0.2718
     79  CB         6.5090   -7.7040    9.0780 C.3   109  ASN109      0.1169
     80  CG         5.8290   -6.8810    7.9840 C.2   109  ASN109      0.2627
     81  OD1        5.5840   -7.3780    6.8850 O.2   109  ASN109     -0.2716
     82  ND2        5.5790   -5.6180    8.2660 N.am  109  ASN109     -0.0877
     83  N          9.9160   -8.5160    8.0580 N.am  110  ASP110     -0.1974
     84  CA        11.1060   -7.8480    7.5270 C.3   110  ASP110      0.1709
     85  C         11.9810   -8.8560    6.7900 C.2   110  ASP110      0.2293
     86  O         11.8080  -10.0740    6.9380 O.2   110  ASP110     -0.2864
     87  CB        11.9200   -7.2630    8.6860 C.3   110  ASP110      0.1436
     88  CG        11.7860   -5.7600    8.8240 C.2   110  ASP110      0.3671
     89  OD1       11.5710   -5.0240    7.8280 O.co2 110  ASP110     -0.2456
     90  OD2       11.9800   -5.2770    9.9730 O.co2 110  ASP110     -0.2456
     91  N          1.8830   -0.9780    3.5460 N.3   232  GLY232     -0.1225
     92  CA         3.0170   -0.2630    4.1130 C.3   232  GLY232      0.1811
     93  C          4.3530   -0.5370    3.4520 C.2   232  GLY232      0.2280
     94  O          5.3620    0.0430    3.8680 O.2   232  GLY232     -0.2866
@<TRIPOS>BOND
     1    37    36    2
     2    28    27    2
     3    36    35    1
     4    27    34   am
     5    27    26    1
     6    21    20    2
     7    35    34    1
     8    35    38    1
     9    93    94    2
    10    93    92    1
    11    16    14    1
    12    91    92    1
    13    17    15    1
    14    26    29    1
    15    26    25    1
    16    15    14    1
    17    20    25   am
    18    20    19    1
    19    29    30    1
    20    38    39    1
    21    24    22    1
    22    14    11    1
    23    30    31    1
    24    39    40    1
    25    18    19    1
    26    18    12   am
    27    31    32    1
    28    19    22    1
    29    11    12    1
    30    11    10    1
    31    22    23    1
    32    12    13    2
    33    49    47    1
    34    40    41   ar
    35    40    42   ar
    36    32    33    1
    37    85    86    2
    38    85    84    1
    39    10     3   am
    40    81    80    2
    41    43    44    1
    42    47    44    1
    43    47    48    1
    44     4     3    2
    45    84    83    1
    46    84    87    1
    47    78    77    2
    48     3     2    1
    49    44    45    1
    50    89    88   ar
    51    50    48    1
    52    80    82   am
    53    80    79    1
    54    77    83   am
    55    77    76    1
    56    76    79    1
    57    76    75    1
    58    87    88    1
    59    88    90   ar
    60     2     1    1
    61     2     5    1
    62    45    46    2
    63    45    51   am
    64     5     6    1
    65    51    52    1
    66     6     7    1
    67    52    53    1
    68    52    55    1
    69    54    53    2
    70     7     9   ar
    71     7     8   ar
    72    53    60   am
    73    55    56    1
    74    60    61    1
    75    61    64    1
    76    61    62    1
    77    73    72    1
    78    56    57    1
    79    58    57    2
    80    74    72    1
    81    66    65   ar
    82    64    65    1
    83    62    68   am
    84    62    63    2
    85    57    59   am
    86    68    69    1
    87    72    69    1
    88    65    67   ar
    89    69    70    1
    90    71    70    2
